<?xml version='1.0' encoding='UTF-8'?>
<edges><edge id="853064929277020263_853063922277020626" from="853064929277020263" to="853063922277020626" length="0.00010704288859203575" /><edge id="853064929277020263_853064937277019935" from="853064929277020263" to="853064937277019935" length="3.280975464689479e-05" /><edge id="853064929277020263_853064943277021003" from="853064929277020263" to="853064943277021003" length="7.401324205993386e-05" /><edge id="853063922277020626_853064178277021463" from="853063922277020626" to="853064178277021463" length="8.752742427166553e-05" /><edge id="853064178277021463_853063935277021684" from="853064178277021463" to="853063935277021684" length="3.2846613226365944e-05" /><edge id="853066349277018824_853065439277019145" from="853066349277018824" to="853065439277019145" length="9.649564758209281e-05" /><edge id="853065439277019145_853064619277019033" from="853065439277019145" to="853064619277019033" length="8.276134362528502e-05" /><edge id="853064619277019033_853064937277019935" from="853064619277019033" to="853064937277019935" length="9.56414136237164e-05" /><edge id="853064943277021003_853065314277022102" from="853064943277021003" to="853065314277022102" length="0.00011599318945359611" /><edge id="853065314277022102_853065647277022713" from="853065314277022102" to="853065647277022713" length="6.958519957491579e-05" /><edge id="853065647277022713_853064605277023015" from="853065647277022713" to="853064605277023015" length="0.00010848815603164626" /><edge id="853064605277023015_853064897277023763" from="853064605277023015" to="853064897277023763" length="8.029744703309658e-05" /><edge id="853064897277023763_853065535277024213" from="853064897277023763" to="853065535277024213" length="7.80732988982136e-05" /><edge id="853065535277024213_853068248277023935" from="853065535277024213" to="853068248277023935" length="0.00027272060794337024" /><edge id="853068248277023935_853068516277025668" from="853068248277023935" to="853068516277025668" length="0.00017536000114074687" /><edge id="853068516277025668_85306853827702577" from="853068516277025668" to="85306853827702577" length="1.0434557969939224e-05" /><edge id="85306853827702577_853067795277025896" from="85306853827702577" to="853067795277025896" length="7.536079882209826e-05" /><edge id="85306853827702577_8530702542770257" from="85306853827702577" to="8530702542770257" length="0.00017174271454868672" /><edge id="853115815277053872_85311619327705641" from="853115815277053872" to="85311619327705641" length="0.00025659945440275966" /><edge id="853115815277053872_85311428277053804" from="853115815277053872" to="85311428277053804" length="0.0001536505450652018" /><edge id="853115815277053872_853116727705392" from="853115815277053872" to="853116727705392" length="8.863007390659719e-05" /><edge id="853108598277045336_853108625277045424" from="853108598277045336" to="853108625277045424" length="9.20489000342614e-06" /><edge id="853108598277045336_853108517277044979" from="853108598277045336" to="853108517277044979" length="3.660737630787019e-05" /><edge id="853108625277045424_85311044277045131" from="853108625277045424" to="85311044277045131" length="0.00018384977562893454" /><edge id="853108625277045424_853106838277045877" from="853108625277045424" to="853106838277045877" length="0.00018435232571686273" /><edge id="853108625277045424_853109008277046695" from="853108625277045424" to="853109008277046695" length="0.0001327452447361613" /><edge id="853065562277042387_853063356277043613" from="853065562277042387" to="853063356277043613" length="0.0002523789214691295" /><edge id="853065562277042387_853065001277041727" from="853065562277042387" to="853065001277041727" length="8.662107134557227e-05" /><edge id="853065562277042387_853068578277046035" from="853065562277042387" to="853068578277046035" length="0.00047333032862898096" /><edge id="853063356277043613_85306143277044207" from="853063356277043613" to="85306143277044207" length="0.00020155177993949828" /><edge id="85306143277044207_85306392277048871" from="85306143277044207" to="85306392277048871" length="0.00052870592960436" /><edge id="853078381277014144_853078261277015921" from="853078381277014144" to="853078261277015921" length="0.00017810471638714237" /><edge id="853078261277015921_853078287277016973" from="853078261277015921" to="853078287277016973" length="0.00010523212437292781" /><edge id="853078287277016973_853077228277021834" from="853078287277016973" to="853077228277021834" length="0.0004975017788928896" /><edge id="853077228277021834_853076812277023824" from="853077228277021834" to="853076812277023824" length="0.0002033016478041541" /><edge id="853076812277023824_853076289277025616" from="853076812277023824" to="853076289277025616" length="0.000186676002742869" /><edge id="853076289277025616_853075638277030182" from="853076289277025616" to="853075638277030182" length="0.0004612174866587189" /><edge id="853076289277025616_853075897277025607" from="853076289277025616" to="853075897277025607" length="3.921033027484216e-05" /><edge id="853076289277025616_853081683277024522" from="853076289277025616" to="853081683277024522" length="0.0005503823398407648" /><edge id="853075638277030182_853075545277031885" from="853075638277030182" to="853075545277031885" length="0.00017055374519561612" /><edge id="853075545277031885_85307535277033744" from="853075545277031885" to="85307535277033744" length="0.00018691992938257967" /><edge id="853075545277031885_853082172277031721" from="853075545277031885" to="853082172277031721" length="0.0006629028963646913" /><edge id="85307535277033744_853075124277037375" from="85307535277033744" to="853075124277037375" length="0.00036380265254492926" /><edge id="85307535277033744_85307008427703446" from="85307535277033744" to="85307008427703446" length="0.0005314453123326849" /><edge id="853075124277037375_853073253277037517" from="853075124277037375" to="853073253277037517" length="0.000187638082479712" /><edge id="853075124277037375_853079133277037342" from="853075124277037375" to="853079133277037342" length="0.00040091358171304815" /><edge id="85311428277053804_8531144127705289" from="85311428277053804" to="8531144127705289" length="9.231987868089799e-05" /><edge id="85311428277053804_853111662277054203" from="85311428277053804" to="853111662277054203" length="0.00026482305413654813" /><edge id="853116727705392_853118419277053725" from="853116727705392" to="853118419277053725" length="0.0001730024855293517" /><edge id="853116727705392_853116126277051554" from="853116727705392" to="853116126277051554" length="0.00024346317996930204" /><edge id="853118419277053725_853119702277053609" from="853118419277053725" to="853119702277053609" length="0.00012882332863279735" /><edge id="853119702277053609_853120458277053929" from="853119702277053609" to="853120458277053929" length="8.209360511282937e-05" /><edge id="853120458277053929_85312173277053934" from="853120458277053929" to="85312173277053934" length="0.00012720098269493343" /><edge id="85312173277053934_853121758277051279" from="85312173277053934" to="853121758277051279" length="0.00026551476418222553" /><edge id="85312173277053934_853121787277054702" from="85312173277053934" to="853121787277054702" length="7.701123294928838e-05" /><edge id="853121122277048164_85312198277048135" from="853121122277048164" to="85312198277048135" length="8.584899532847672e-05" /><edge id="853121122277048164_853120992277047456" from="853121122277048164" to="853120992277047456" length="7.198360924424409e-05" /><edge id="853121122277048164_853121197277048469" from="853121122277048164" to="853121197277048469" length="3.140859754907179e-05" /><edge id="853111845277041559_85311273277041524" from="853111845277041559" to="85311273277041524" length="8.856918200301932e-05" /><edge id="853111845277041559_853111721277039946" from="853111845277041559" to="853111721277039946" length="0.000161775925278077" /><edge id="853111845277041559_853111942277042819" from="853111845277041559" to="853111942277042819" length="0.00012637282144725923" /><edge id="853120877277046797_853120992277047456" from="853120877277046797" to="853120992277047456" length="6.689588925993255e-05" /><edge id="853120877277046797_853120802277046483" from="853120877277046797" to="853120802277046483" length="3.2283277408063245e-05" /><edge id="853120992277047456_853121856277047421" from="853120992277047456" to="853121856277047421" length="8.647086214506159e-05" /><edge id="853121197277048469_853121384277049035" from="853121197277048469" to="853121384277049035" length="5.9609143593966536e-05" /><edge id="853073197277053591_85307299277053946" from="853073197277053591" to="85307299277053946" length="4.109428183961421e-05" /><edge id="853073197277053591_853073572277053335" from="853073197277053591" to="853073572277053335" length="4.5404955681043336e-05" /><edge id="85307299277053946_853073338277054719" from="85307299277053946" to="853073338277054719" length="8.47722242200739e-05" /><edge id="853073338277054719_853072326277055799" from="853073338277054719" to="853072326277055799" length="0.00014800486477798243" /><edge id="853072326277055799_853072916277057557" from="853072326277055799" to="853072916277057557" length="0.00018543635026478645" /><edge id="853072916277057557_853073164277058227" from="853072916277057557" to="853073164277058227" length="7.144256434357172e-05" /><edge id="853073164277058227_853072453277058999" from="853073164277058227" to="853072453277058999" length="0.00010495260835206124" /><edge id="853082611277024286_853083092277023106" from="853082611277024286" to="853083092277023106" length="0.00012742688099531382" /><edge id="853082611277024286_85308206527702442" from="853082611277024286" to="85308206527702442" length="5.6220281036752776e-05" /><edge id="853082611277024286_853083774277024601" from="853082611277024286" to="853083774277024601" length="0.00012049041455804176" /><edge id="853083092277023106_853083542277021727" from="853083092277023106" to="853083542277021727" length="0.000145056575171879" /><edge id="853083542277021727_853083742277020315" from="853083542277021727" to="853083742277020315" length="0.00014260939660382663" /><edge id="853083742277020315_853085443277019782" from="853083742277020315" to="853085443277019782" length="0.00017825515419510714" /><edge id="853085443277019782_853086485277019454" from="853085443277019782" to="853086485277019454" length="0.0001092404687009822" /><edge id="853086485277019454_853088029277024762" from="853086485277019454" to="853088029277024762" length="0.0005528001447176017" /><edge id="853120478277045528_853119794277043605" from="853120478277045528" to="853119794277043605" length="0.00020410254775444212" /><edge id="853120478277045528_853120702277045952" from="853120478277045528" to="853120702277045952" length="4.795331062368899e-05" /><edge id="853120478277045528_853118943277045563" from="853120478277045528" to="853118943277045563" length="0.00015353989709137035" /><edge id="853119794277043605_8531197277042542" from="853119794277043605" to="8531197277042542" length="0.00010671480684360997" /><edge id="8531197277042542_85311838427704257" from="8531197277042542" to="85311838427704257" length="0.00013162978386674107" /><edge id="85311838427704257_853118259277042577" from="85311838427704257" to="853118259277042577" length="1.2519584654574643e-05" /><edge id="85311838427704257_853118282277041284" from="85311838427704257" to="853118282277041284" length="0.0001290038759112347" /><edge id="853118259277042577_853115469277042792" from="853118259277042577" to="853115469277042792" length="0.0002798271788146765" /><edge id="853105507277050103_853105921277051706" from="853105507277050103" to="853105921277051706" length="0.00016555980792219658" /><edge id="853105507277050103_853104603277050316" from="853105507277050103" to="853104603277050316" length="9.287545422936925e-05" /><edge id="853105507277050103_853105514277049037" from="853105507277050103" to="853105514277049037" length="0.00010660229828896443" /><edge id="853105921277051706_853106516277053389" from="853105921277051706" to="853106516277053389" length="0.00017850809505856843" /><edge id="853106516277053389_853107156277055199" from="853106516277053389" to="853107156277055199" length="0.0001919817699640189" /><edge id="853107156277055199_853107242277054992" from="853107156277055199" to="853107242277054992" length="2.241539649506055e-05" /><edge id="853107156277055199_853106689277055334" from="853107156277055199" to="853106689277055334" length="4.8612138400921354e-05" /><edge id="853120513277028329_85311935327702827" from="853120513277028329" to="85311935327702827" length="0.00011614994618168862" /><edge id="853120513277028329_853120512277027175" from="853120513277028329" to="853120512277027175" length="0.0001154000433296402" /><edge id="853120513277028329_853120954277028341" from="853120513277028329" to="853120954277028341" length="4.411632352042066e-05" /><edge id="85311935327702827_853119689277032996" from="85311935327702827" to="853119689277032996" length="0.0004737929083486516" /><edge id="85311935327702827_853119278277027217" from="85311935327702827" to="853119278277027217" length="0.0001055667561283201" /><edge id="85312519277021193_853128689277021011" from="85312519277021193" to="853128689277021011" length="0.00035037301551678226" /><edge id="853128689277021011_853128642277022441" from="853128689277021011" to="853128642277022441" length="0.00014307721691554323" /><edge id="853128689277021011_853128533277020023" from="853128689277021011" to="853128533277020023" length="0.00010002399712026579" /><edge id="853083774277024601_853083822277026129" from="853083774277024601" to="853083822277026129" length="0.00015287537407827098" /><edge id="853083774277024601_853084496277024816" from="853083774277024601" to="853084496277024816" length="7.533319322000147e-05" /><edge id="853083938277057413_853084607277057184" from="853083938277057413" to="853084607277057184" length="7.07108195337141e-05" /><edge id="853083938277057413_853084068277057957" from="853083938277057413" to="853084068277057957" length="5.593174411604313e-05" /><edge id="853083938277057413_853083649277056201" from="853083938277057413" to="853083649277056201" length="0.00012459795343396535" /><edge id="853084607277057184_853084575277057051" from="853084607277057184" to="853084575277057051" length="1.367954677402341e-05" /><edge id="853103694277040906_853102796277038149" from="853103694277040906" to="853102796277038149" length="0.0002899560828804181" /><edge id="853103694277040906_853101095277041292" from="853103694277040906" to="853101095277041292" length="0.00026275077545395443" /><edge id="853103694277040906_853105457277040657" from="853103694277040906" to="853105457277040657" length="0.00017804971216594945" /><edge id="853102796277038149_853102303277035246" from="853102796277038149" to="853102303277035246" length="0.0002944564144314814" /><edge id="853102303277035246_853102253277034652" from="853102303277035246" to="853102253277034652" length="5.961006626551612e-05" /><edge id="853102303277035246_853093576277036285" from="853102303277035246" to="853093576277036285" length="0.0008788631861692755" /><edge id="853102303277035246_853111237277034104" from="853102303277035246" to="853111237277034104" length="0.0009006693066782441" /><edge id="853042678277053135_853043458277053539" from="853042678277053135" to="853043458277053539" length="8.784167574714548e-05" /><edge id="853043458277053539_85304541277053822" from="853043458277053539" to="85304541277053822" length="0.00019724079193438317" /><edge id="85304541277053822_853047004277054331" from="85304541277053822" to="853047004277054331" length="0.00016732952519062113" /><edge id="853047004277054331_853050558277054439" from="853047004277054331" to="853050558277054439" length="0.00035556405892971213" /><edge id="853050558277054439_853051986277054616" from="853050558277054439" to="853051986277054616" length="0.0001438927725694127" /><edge id="853051986277054616_85305239527705467" from="853051986277054616" to="85305239527705467" length="4.1254939100017126e-05" /><edge id="85305239527705467_8530531542770546" from="85305239527705467" to="8530531542770546" length="7.622210965211179e-05" /><edge id="8530531542770546_853053817277054256" from="8530531542770546" to="853053817277054256" length="7.46930384964517e-05" /><edge id="853053817277054256_8530541322770542" from="853053817277054256" to="8530541322770542" length="3.199390567558214e-05" /><edge id="8530541322770542_853054504277054102" from="8530541322770542" to="853054504277054102" length="3.846920846058399e-05" /><edge id="853054504277054102_853054375277053626" from="853054504277054102" to="853054375277053626" length="4.9317035595168844e-05" /><edge id="853054375277053626_853055258277053255" from="853054375277053626" to="853055258277053255" length="9.577734596600018e-05" /><edge id="853055258277053255_853056878277052679" from="853055258277053255" to="853056878277052679" length="0.0001719353366856172" /><edge id="853056878277052679_853058382277051841" from="853056878277052679" to="853058382277051841" length="0.00017217026455929927" /><edge id="853058382277051841_853059389277051156" from="853058382277051841" to="853059389277051156" length="0.00012178973684609402" /><edge id="853059389277051156_853060787277050525" from="853059389277051156" to="853060787277050525" length="0.00015338073542545342" /><edge id="853060787277050525_853061831277049996" from="853060787277050525" to="853061831277049996" length="0.00011703747262976442" /><edge id="853061831277049996_85306392277048871" from="853061831277049996" to="85306392277048871" length="0.00023726664325551312" /><edge id="85306392277048871_853066066277054689" from="85306392277048871" to="853066066277054689" length="0.0006201164406752285" /><edge id="8530586277036374_853058855277037352" from="8530586277036374" to="853058855277037352" length="0.00010106972840633514" /><edge id="8530586277036374_853059002277036264" from="8530586277036374" to="853059002277036264" length="4.1677811843719056e-05" /><edge id="853058855277037352_853059047277038048" from="853058855277037352" to="853059047277038048" length="7.219972299014924e-05" /><edge id="853059047277038048_853059344277038867" from="853059047277038048" to="853059344277038867" length="8.711888429133208e-05" /><edge id="853059344277038867_853059611277039218" from="853059344277038867" to="853059611277039218" length="4.410102039874635e-05" /><edge id="853059611277039218_853060092277039496" from="853059611277039218" to="853060092277039496" length="5.55558277785686e-05" /><edge id="853060092277039496_853060599277039698" from="853060092277039496" to="853060599277039698" length="5.457591042535727e-05" /><edge id="853060599277039698_853062548277040561" from="853060599277039698" to="853062548277040561" length="0.0002131518238350403" /><edge id="853062548277040561_853063244277040858" from="853062548277040561" to="853063244277040858" length="7.567198952473926e-05" /><edge id="853063244277040858_853065001277041727" from="853063244277040858" to="853065001277041727" length="0.0001960155606063609" /><edge id="853065001277041727_853064603277039403" from="853065001277041727" to="853064603277039403" length="0.0002357833751569984" /><edge id="853068578277046035_853071102277048735" from="853068578277046035" to="853071102277048735" length="0.0003696021644918522" /><edge id="853068578277046035_853072748277045184" from="853068578277046035" to="853072748277045184" length="0.00042559488953573636" /><edge id="853071102277048735_853071781277049344" from="853071102277048735" to="853071781277049344" length="9.120975825182201e-05" /><edge id="853071781277049344_853072735277050118" from="853071781277049344" to="853072735277050118" length="0.00012284917581668336" /><edge id="853072735277050118_853073781277050818" from="853072735277050118" to="853073781277050818" length="0.00012586167009728415" /><edge id="853073781277050818_853074786277051395" from="853073781277050818" to="853074786277051395" length="0.00011588589215577325" /><edge id="853074786277051395_853075329277051713" from="853074786277051395" to="853075329277051713" length="6.292638556397277e-05" /><edge id="853075329277051713_853076148277052217" from="853075329277051713" to="853076148277052217" length="9.616532638935678e-05" /><edge id="853076148277052217_853076925277052319" from="853076148277052217" to="853076925277052319" length="7.836663831576152e-05" /><edge id="853076148277052217_853075532277052555" from="853076148277052217" to="853075532277052555" length="7.026378867838498e-05" /><edge id="853076925277052319_853077916277052381" from="853076925277052319" to="853077916277052381" length="9.929375609752602e-05" /><edge id="853077916277052381_853079157277052294" from="853077916277052381" to="853079157277052294" length="0.00012440458190274113" /><edge id="853079157277052294_85308025277052228" from="853079157277052294" to="85308025277052228" length="0.0001094990867595295" /><edge id="85308025277052228_85308135927705225" from="85308025277052228" to="85308135927705225" length="0.00011092181930996813" /><edge id="85308135927705225_85308261277052357" from="85308135927705225" to="85308261277052357" length="0.00012555676007824313" /><edge id="85308261277052357_8530834277052178" from="85308261277052357" to="8530834277052178" length="8.100253082407385e-05" /><edge id="85308261277052357_853084036277053173" from="85308261277052357" to="853084036277053173" length="0.00016429643940546148" /><edge id="853130016277022429_853130066277027494" from="853130016277022429" to="853130066277027494" length="0.000506524678566074" /><edge id="853130016277022429_853128642277022441" from="853130016277022429" to="853128642277022441" length="0.00013740524007459272" /><edge id="853130016277022429_853133681277022323" from="853130016277022429" to="853133681277022323" length="0.00036665325581382654" /><edge id="853044712277068918_853047737277065232" from="853044712277068918" to="853047737277065232" length="0.0004768356215756021" /><edge id="853047737277065232_85304783277064871" from="853047737277065232" to="85304783277064871" length="3.7278680233797436e-05" /><edge id="85304783277064871_8530481142770644" from="85304783277064871" to="8530481142770644" length="5.499972727443251e-05" /><edge id="8530481142770644_8530488277063764" from="8530481142770644" to="8530488277063764" length="9.354635214130723e-05" /><edge id="8530488277063764_85304919277062508" from="8530488277063764" to="85304919277062508" length="0.00013151562644874256" /><edge id="85304919277062508_85304938277061908" from="85304919277062508" to="85304938277061908" length="6.293647591075146e-05" /><edge id="85304938277061908_853049808277061455" from="85304938277061908" to="853049808277061455" length="6.232118419144727e-05" /><edge id="853049808277061455_85305107277060451" from="853049808277061455" to="85305107277060451" length="0.00016126561940777044" /><edge id="85305107277060451_853052388277059553" from="85305107277060451" to="853052388277059553" length="0.00015948441929522923" /><edge id="853052388277059553_853054039277059208" from="853052388277059553" to="853054039277059208" length="0.0001686661198970592" /><edge id="853054039277059208_85305522277058842" from="853054039277059208" to="85305522277058842" length="0.00012364129568561953" /><edge id="85305522277058842_85305583277058332" from="85305522277058842" to="85305583277058332" length="7.951100552875369e-05" /><edge id="85305583277058332_853056334277057815" from="85305583277058332" to="853056334277057815" length="7.220145428355441e-05" /><edge id="853056334277057815_853057056277057488" from="853056334277057815" to="853057056277057488" length="7.92598889656246e-05" /><edge id="853057056277057488_853058056277057248" from="853057056277057488" to="853058056277057248" length="0.0001028396810606413" /><edge id="853058056277057248_853059828277057011" from="853058056277057248" to="853059828277057011" length="0.00017877787894080265" /><edge id="853059828277057011_85306437277055251" from="853059828277057011" to="85306437277055251" length="0.00048710742142408885" /><edge id="85306437277055251_853066066277054689" from="85306437277055251" to="853066066277054689" length="0.0001786689676395457" /><edge id="853066066277054689_853068416277060584" from="853066066277054689" to="853068416277060584" length="0.0006346142529142794" /><edge id="853130339277058582_85313057277063392" from="853130339277058582" to="85313057277063392" length="0.00048155436868281467" /><edge id="853130339277058582_853137476277057427" from="853130339277058582" to="853137476277057427" length="0.0007229854355441005" /><edge id="853130339277058582_85312779527705921" from="853130339277058582" to="85312779527705921" length="0.00026203663864818707" /><edge id="85313057277063392_85313064427706566" from="85313057277063392" to="85313064427706566" length="0.00022692069099149016" /><edge id="85313064427706566_85313075277067938" from="85313064427706566" to="85313075277067938" length="0.00022804648648997114" /><edge id="85313075277067938_85313089277069102" from="85313075277067938" to="85313089277069102" length="0.00011723890139413821" /><edge id="85313089277069102_853130922277069625" from="85313089277069102" to="853130922277069625" length="5.239780529734648e-05" /><edge id="853130922277069625_853132174277069562" from="853130922277069625" to="853132174277069562" length="0.0001253584061793731" /><edge id="853132174277069562_853132286277069625" from="853132174277069562" to="853132286277069625" length="1.2850291827600422e-05" /><edge id="853132286277069625_853132351277069718" from="853132286277069625" to="853132351277069718" length="1.1346365057164608e-05" /><edge id="853132351277069718_853133103277072941" from="853132351277069718" to="853133103277072941" length="0.000330956689005863" /><edge id="853059002277036264_853059448277036264" from="853059002277036264" to="853059448277036264" length="4.4600000009609175e-05" /><edge id="853059448277036264_853059901277036178" from="853059448277036264" to="853059901277036178" length="4.610910972571569e-05" /><edge id="853059901277036178_853061336277035964" from="853059901277036178" to="853061336277035964" length="0.00014508690498470775" /><edge id="853061336277035964_85306320227703565" from="853061336277035964" to="85306320227703565" length="0.00018922346578111284" /><edge id="85306320227703565_853064659277035488" from="85306320227703565" to="853064659277035488" length="0.00014659785128484946" /><edge id="853107459277057357_853108237277057138" from="853107459277057357" to="853108237277057138" length="8.082357329366526e-05" /><edge id="853107459277057357_853107138277056315" from="853107459277057357" to="853107138277056315" length="0.00010903233465564718" /><edge id="853107459277057357_853107698277058129" from="853107459277057357" to="853107698277058129" length="8.08149119907343e-05" /><edge id="853106689277055334_853107067277056292" from="853106689277055334" to="853107067277056292" length="0.00010298776626459901" /><edge id="853106689277055334_8531045627705595" from="853106689277055334" to="8531045627705595" length="0.0002216325111468658" /><edge id="853107067277056292_853107138277056315" from="853107067277056292" to="853107138277056315" length="7.463243266919793e-06" /><edge id="853107698277058129_853107825277058619" from="853107698277058129" to="853107825277058619" length="5.061906755061203e-05" /><edge id="853124781277046049_853124419277047467" from="853124781277046049" to="853124419277047467" length="0.00014634780490742924" /><edge id="853124781277046049_85312459127704452" from="853124781277046049" to="85312459127704452" length="0.00015407598774719165" /><edge id="853124781277046049_85312785277046049" from="853124781277046049" to="85312785277046049" length="0.0003068999999982225" /><edge id="853124419277047467_853124326277047902" from="853124419277047467" to="853124326277047902" length="4.448303047304412e-05" /><edge id="853124419277047467_853123097277047384" from="853124419277047467" to="853123097277047384" length="0.00013246029593405996" /><edge id="853124326277047902_853124091277049224" from="853124326277047902" to="853124091277049224" length="0.0001342724469120279" /><edge id="853124091277049224_853121885277050993" from="853124091277049224" to="853121885277050993" length="0.0002827684034614536" /><edge id="853121885277050993_853121778277051113" from="853121885277050993" to="853121778277051113" length="1.607762420402713e-05" /><edge id="853121778277051113_853121758277051279" from="853121778277051113" to="853121758277051279" length="1.672004784834478e-05" /><edge id="853121778277051113_853121677277050631" from="853121778277051113" to="853121677277050631" length="4.924682730683102e-05" /><edge id="853121787277054702_85312193277055677" from="853121787277054702" to="85312193277055677" length="9.85430870203426e-05" /><edge id="85312193277055677_853122197277057505" from="85312193277055677" to="853122197277057505" length="0.0001847396275863024" /><edge id="85312193277055677_853121243277055726" from="85312193277055677" to="853121243277055726" length="6.887452359177034e-05" /><edge id="853122197277057505_853122241277057805" from="853122197277057505" to="853122241277057805" length="3.032094985128467e-05" /><edge id="853122197277057505_853120825277057589" from="853122197277057505" to="853120825277057589" length="0.0001374569023341265" /><edge id="853122241277057805_853122263277058218" from="853122241277057805" to="853122263277058218" length="4.135855413341414e-05" /><edge id="853122263277058218_85312227277058358" from="853122263277058218" to="85312227277058358" length="1.4017489075674878e-05" /><edge id="853122263277058218_853120379277058422" from="853122263277058218" to="853120379277058422" length="0.0001895012401005067" /><edge id="85312227277058358_853122274277058429" from="85312227277058358" to="853122274277058429" length="7.111258680544226e-06" /><edge id="853122274277058429_853122334277059581" from="853122274277058429" to="853122334277059581" length="0.00011535614417937798" /><edge id