<?xml version='1.0' encoding='UTF-8'?>
<nodes><node id="853064929277020263" x="85.3064929" y="27.7020263" /><node id="853063922277020626" x="85.3063922" y="27.7020626" /><node id="853064178277021463" x="85.3064178" y="27.7021463" /><node id="853063935277021684" x="85.3063935" y="27.7021684" /><node id="853066349277018824" x="85.3066349" y="27.7018824" /><node id="853065439277019145" x="85.3065439" y="27.7019145" /><node id="853064619277019033" x="85.3064619" y="27.7019033" /><node id="853064937277019935" x="85.3064937" y="27.7019935" /><node id="853064943277021003" x="85.3064943" y="27.7021003" /><node id="853065314277022102" x="85.3065314" y="27.7022102" /><node id="853065647277022713" x="85.3065647" y="27.7022713" /><node id="853064605277023015" x="85.3064605" y="27.7023015" /><node id="853064897277023763" x="85.3064897" y="27.7023763" /><node id="853065535277024213" x="85.3065535" y="27.7024213" /><node id="853068248277023935" x="85.3068248" y="27.7023935" /><node id="853068516277025668" x="85.3068516" y="27.7025668" /><node id="85306853827702577" x="85.3068538" y="27.702577" /><node id="853115815277053872" x="85.3115815" y="27.7053872" /><node id="85311619327705641" x="85.3116193" y="27.705641" /><node id="853108598277045336" x="85.3108598" y="27.7045336" /><node id="853108625277045424" x="85.3108625" y="27.7045424" /><node id="85311044277045131" x="85.311044" y="27.7045131" /><node id="853065562277042387" x="85.3065562" y="27.7042387" /><node id="853063356277043613" x="85.3063356" y="27.7043613" /><node id="85306143277044207" x="85.306143" y="27.7044207" /><node id="853078381277014144" x="85.3078381" y="27.7014144" /><node id="853078261277015921" x="85.3078261" y="27.7015921" /><node id="853078287277016973" x="85.3078287" y="27.7016973" /><node id="853077228277021834" x="85.3077228" y="27.7021834" /><node id="853076812277023824" x="85.3076812" y="27.7023824" /><node id="853076289277025616" x="85.3076289" y="27.7025616" /><node id="853075638277030182" x="85.3075638" y="27.7030182" /><node id="853075545277031885" x="85.3075545" y="27.7031885" /><node id="85307535277033744" x="85.307535" y="27.7033744" /><node id="853075124277037375" x="85.3075124" y="27.7037375" /><node id="85311428277053804" x="85.311428" y="27.7053804" /><node id="853116727705392" x="85.31167" y="27.705392" /><node id="853118419277053725" x="85.3118419" y="27.7053725" /><node id="853119702277053609" x="85.3119702" y="27.7053609" /><node id="853120458277053929" x="85.3120458" y="27.7053929" /><node id="85312173277053934" x="85.312173" y="27.7053934" /><node id="853121122277048164" x="85.3121122" y="27.7048164" /><node id="85312198277048135" x="85.312198" y="27.7048135" /><node id="853111845277041559" x="85.3111845" y="27.7041559" /><node id="85311273277041524" x="85.311273" y="27.7041524" /><node id="853120877277046797" x="85.3120877" y="27.7046797" /><node id="853120992277047456" x="85.3120992" y="27.7047456" /><node id="853121197277048469" x="85.3121197" y="27.7048469" /><node id="853073197277053591" x="85.3073197" y="27.7053591" /><node id="85307299277053946" x="85.307299" y="27.7053946" /><node id="853073338277054719" x="85.3073338" y="27.7054719" /><node id="853072326277055799" x="85.3072326" y="27.7055799" /><node id="853072916277057557" x="85.3072916" y="27.7057557" /><node id="853073164277058227" x="85.3073164" y="27.7058227" /><node id="853082611277024286" x="85.3082611" y="27.7024286" /><node id="853083092277023106" x="85.3083092" y="27.7023106" /><node id="853083542277021727" x="85.3083542" y="27.7021727" /><node id="853083742277020315" x="85.3083742" y="27.7020315" /><node id="853085443277019782" x="85.3085443" y="27.7019782" /><node id="853086485277019454" x="85.3086485" y="27.7019454" /><node id="853120478277045528" x="85.3120478" y="27.7045528" /><node id="853119794277043605" x="85.3119794" y="27.7043605" /><node id="8531197277042542" x="85.31197" y="27.7042542" /><node id="85311838427704257" x="85.3118384" y="27.704257" /><node id="853118259277042577" x="85.3118259" y="27.7042577" /><node id="853115469277042792" x="85.3115469" y="27.7042792" /><node id="853105507277050103" x="85.3105507" y="27.7050103" /><node id="853105921277051706" x="85.3105921" y="27.7051706" /><node id="853106516277053389" x="85.3106516" y="27.7053389" /><node id="853107156277055199" x="85.3107156" y="27.7055199" /><node id="853120513277028329" x="85.3120513" y="27.7028329" /><node id="85311935327702827" x="85.3119353" y="27.702827" /><node id="85312519277021193" x="85.312519" y="27.7021193" /><node id="853128689277021011" x="85.3128689" y="27.7021011" /><node id="853083774277024601" x="85.3083774" y="27.7024601" /><node id="853083822277026129" x="85.3083822" y="27.7026129" /><node id="853083938277057413" x="85.3083938" y="27.7057413" /><node id="853084607277057184" x="85.3084607" y="27.7057184" /><node id="853084575277057051" x="85.3084575" y="27.7057051" /><node id="853103694277040906" x="85.3103694" y="27.7040906" /><node id="853102796277038149" x="85.3102796" y="27.7038149" /><node id="853102303277035246" x="85.3102303" y="27.7035246" /><node id="853042678277053135" x="85.3042678" y="27.7053135" /><node id="853043458277053539" x="85.3043458" y="27.7053539" /><node id="85304541277053822" x="85.304541" y="27.7053822" /><node id="853047004277054331" x="85.3047004" y="27.7054331" /><node id="853050558277054439" x="85.3050558" y="27.7054439" /><node id="853051986277054616" x="85.3051986" y="27.7054616" /><node id="85305239527705467" x="85.3052395" y="27.705467" /><node id="8530531542770546" x="85.3053154" y="27.70546" /><node id="853053817277054256" x="85.3053817" y="27.7054256" /><node id="8530541322770542" x="85.3054132" y="27.70542" /><node id="853054504277054102" x="85.3054504" y="27.7054102" /><node id="853054375277053626" x="85.3054375" y="27.7053626" /><node id="853055258277053255" x="85.3055258" y="27.7053255" /><node id="853056878277052679" x="85.3056878" y="27.7052679" /><node id="853058382277051841" x="85.3058382" y="27.7051841" /><node id="853059389277051156" x="85.3059389" y="27.7051156" /><node id="853060787277050525" x="85.3060787" y="27.7050525" /><node id="853061831277049996" x="85.3061831" y="27.7049996" /><node id="85306392277048871" x="85.306392" y="27.7048871" /><node id="8530586277036374" x="85.30586" y="27.7036374" /><node id="853058855277037352" x="85.3058855" y="27.7037352" /><node id="853059047277038048" x="85.3059047" y="27.7038048" /><node id="853059344277038867" x="85.3059344" y="27.7038867" /><node id="853059611277039218" x="85.3059611" y="27.7039218" /><node id="853060092277039496" x="85.3060092" y="27.7039496" /><node id="853060599277039698" x="85.3060599" y="27.7039698" /><node id="853062548277040561" x="85.3062548" y="27.7040561" /><node id="853063244277040858" x="85.3063244" y="27.7040858" /><node id="853065001277041727" x="85.3065001" y="27.7041727" /><node id="853068578277046035" x="85.3068578" y="27.7046035" /><node id="853071102277048735" x="85.3071102" y="27.7048735" /><node id="853071781277049344" x="85.3071781" y="27.7049344" /><node id="853072735277050118" x="85.3072735" y="27.7050118" /><node id="853073781277050818" x="85.3073781" y="27.7050818" /><node id="853074786277051395" x="85.3074786" y="27.7051395" /><node id="853075329277051713" x="85.3075329" y="27.7051713" /><node id="853076148277052217" x="85.3076148" y="27.7052217" /><node id="853076925277052319" x="85.3076925" y="27.7052319" /><node id="853077916277052381" x="85.3077916" y="27.7052381" /><node id="853079157277052294" x="85.3079157" y="27.7052294" /><node id="85308025277052228" x="85.308025" y="27.7052228" /><node id="85308135927705225" x="85.3081359" y="27.705225" /><node id="85308261277052357" x="85.308261" y="27.7052357" /><node id="853130016277022429" x="85.3130016" y="27.7022429" /><node id="853130066277027494" x="85.3130066" y="27.7027494" /><node id="853044712277068918" x="85.3044712" y="27.7068918" /><node id="853047737277065232" x="85.3047737" y="27.7065232" /><node id="85304783277064871" x="85.304783" y="27.7064871" /><node id="8530481142770644" x="85.3048114" y="27.70644" /><node id="8530488277063764" x="85.30488" y="27.7063764" /><node id="85304919277062508" x="85.304919" y="27.7062508" /><node id="85304938277061908" x="85.304938" y="27.7061908" /><node id="853049808277061455" x="85.3049808" y="27.7061455" /><node id="85305107277060451" x="85.305107" y="27.7060451" /><node id="853052388277059553" x="85.3052388" y="27.7059553" /><node id="853054039277059208" x="85.3054039" y="27.7059208" /><node id="85305522277058842" x="85.305522" y="27.7058842" /><node id="85305583277058332" x="85.305583" y="27.7058332" /><node id="853056334277057815" x="85.3056334" y="27.7057815" /><node id="853057056277057488" x="85.3057056" y="27.7057488" /><node id="853058056277057248" x="85.3058056" y="27.7057248" /><node id="853059828277057011" x="85.3059828" y="27.7057011" /><node id="85306437277055251" x="85.306437" y="27.7055251" /><node id="853066066277054689" x="85.3066066" y="27.7054689" /><node id="853130339277058582" x="85.3130339" y="27.7058582" /><node id="85313057277063392" x="85.313057" y="27.7063392" /><node id="85313064427706566" x="85.3130644" y="27.706566" /><node id="85313075277067938" x="85.313075" y="27.7067938" /><node id="85313089277069102" x="85.313089" y="27.7069102" /><node id="853130922277069625" x="85.3130922" y="27.7069625" /><node id="853132174277069562" x="85.3132174" y="27.7069562" /><node id="853132286277069625" x="85.3132286" y="27.7069625" /><node id="853132351277069718" x="85.3132351" y="27.7069718" /><node id="853133103277072941" x="85.3133103" y="27.7072941" /><node id="853059002277036264" x="85.3059002" y="27.7036264" /><node id="853059448277036264" x="85.3059448" y="27.7036264" /><node id="853059901277036178" x="85.3059901" y="27.7036178" /><node id="853061336277035964" x="85.3061336" y="27.7035964" /><node id="85306320227703565" x="85.3063202" y="27.703565" /><node id="853107459277057357" x="85.3107459" y="27.7057357" /><node id="853108237277057138" x="85.3108237" y="27.7057138" /><node id="853106689277055334" x="85.3106689" y="27.7055334" /><node id="853107067277056292" x="85.3107067" y="27.7056292" /><node id="853107138277056315" x="85.3107138" y="27.7056315" /><node id="853107698277058129" x="85.3107698" y="27.7058129" /><node id="853107825277058619" x="85.3107825" y="27.7058619" /><node id="853124781277046049" x="85.3124781" y="27.7046049" /><node id="853124419277047467" x="85.3124419" y="27.7047467" /><node id="853124326277047902" x="85.3124326" y="27.7047902" /><node id="853124091277049224" x="85.3124091" y="27.7049224" /><node id="853121885277050993" x="85.3121885" y="27.7050993" /><node id="853121778277051113" x="85.3121778" y="27.7051113" /><node id="853121758277051279" x="85.3121758" y="27.7051279" /><node id="853121787277054702" x="85.3121787" y="27.7054702" /><node id="85312193277055677" x="85.312193" y="27.7055677" /><node id="853122197277057505" x="85.3122197" y="27.7057505" /><node id="853122241277057805" x="85.3122241" y="27.7057805" /><node id="853122263277058218" x="85.3122263" y="27.7058218" /><node id="85312227277058358" x="85.312227" y="27.7058358" /><node id="853122274277058429" x="85.3122274" y="27.7058429" /><node id="853122334277059581" x="85.3122334" y="27.7059581" /><node id="853122369277060253" x="85.3122369" y="27.7060253" /><node id="85312138277028205" x="85.312138" y="27.7028205" /><node id="853121381277028798" x="85.3121381" y="27.7028798" /><node id="85312137277028932" x="85.312137" y="27.7028932" /><node id="853121389277029741" x="85.3121389" y="27.7029741" /><node id="853121276277029754" x="85.3121276" y="27.7029754" /><node id="85312128327702995" x="85.3121283" y="27.702995" /><node id="853121269277030585" x="85.3121269" y="27.7030585" /><node id="85312181277030582" x="85.312181" y="27.7030582" /><node id="853122033277032777" x="85.3122033" y="27.7032777" /><node id="853067795277025896" x="85.3067795" y="27.7025896" /><node id="85306792277028525" x="85.306792" y="27.7028525" /><node id="853068653277028589" x="85.3068653" y="27.7028589" /><node id="853068849277029432" x="85.3068849" y="27.7029432" /><node id="853068856277030189" x="85.3068856" y="27.7030189" /><node id="853068608277031968" x="85.3068608" y="27.7031968" /><node id="853068785277033165" x="85.3068785" y="27.7033165" /><node id="853069808277033242" x="85.3069808" y="27.7033242" /><node id="85307008427703446" x="85.3070084" y="27.703446" /><node id="853120388277059785" x="85.3120388" y="27.7059785" /><node id="853120287277058945" x="85.3120287" y="27.7058945" /><node id="853120399277058575" x="85.3120399" y="27.7058575" /><node id="853120379277058422" x="85.3120379" y="27.7058422" /><node id="853108517277044979" x="85.3108517" y="27.7044979" /><node id="853108469277044832" x="85.3108469" y="27.7044832" /><node id="853111721277039946" x="85.3111721" y="27.7039946" /><node id="853111909277039793" x="85.3111909" y="27.7039793" /><node id="853113188277039633" x="85.3113188" y="27.7039633" /><node id="853115606277039331" x="85.3115606" y="27.7039331" /><node id="853116493277039279" x="85.3116493" y="27.7039279" /><node id="853118049277039189" x="85.3118049" y="27.7039189" /><node id="85311988927703926" x="85.3119889" y="27.703926" /><node id="853120937277039289" x="85.3120937" y="27.7039289" /><node id="85312530927703927" x="85.3125309" y="27.703927" /><node id="853068416277060584" x="85.3068416" y="27.7060584" /><node id="853121464277049749" x="85.3121464" y="27.7049749" /><node id="853121677277050631" x="85.3121677" y="27.7050631" /><node id="853111237277034104" x="85.3111237" y="27.7034104" /><node id="853111413277036184" x="85.3111413" y="27.7036184" /><node id="853111689277037847" x="85.3111689" y="27.7037847" /><node id="853111676277039138" x="85.3111676" y="27.7039138" /><node id="85311055227702899" x="85.3110552" y="27.702899" /><node id="853115572277027714" x="85.3115572" y="27.7027714" /><node id="85311676327702742" x="85.3116763" y="27.702742" /><node id="853118688277027256" x="85.3118688" y="27.7027256" /><node id="853119278277027217" x="85.3119278" y="27.7027217" /><node id="853119865277027224" x="85.3119865" y="27.7027224" /><node id="853120512277027175" x="85.3120512" y="27.7027175" /><node id="85308625327702512" x="85.3086253" y="27.702512" /><node id="853086317277026191" x="85.3086317" y="27.7026191" /><node id="85308646277026779" x="85.308646" y="27.7026779" /><node id="853086602277027552" x="85.3086602" y="27.7027552" /><node id="853086696277027605" x="85.3086696" y="27.7027605" /><node id="853086823277027617" x="85.3086823" y="27.7027617" /><node id="853087266277027567" x="85.3087266" y="27.7027567" /><node id="853087477277027644" x="85.3087477" y="27.7027644" /><node id="85308764277028047" x="85.308764" y="27.7028047" /><node id="85308760827702811" x="85.3087608" y="27.702811" /><node id="85308646127702827" x="85.3086461" y="27.702827" /><node id="853086411277028338" x="85.3086411" y="27.7028338" /><node id="853086746277029751" x="85.3086746" y="27.7029751" /><node id="853087313277031387" x="85.3087313" y="27.7031387" /><node id="853055496277025963" x="85.3055496" y="27.7025963" /><node id="85305634277025721" x="85.305634" y="27.7025721" /><node id="853056543277025689" x="85.3056543" y="27.7025689" /><node id="85305671327702569" x="85.3056713" y="27.702569" /><node id="8530567862770258" x="85.3056786" y="27.70258" /><node id="853056846277025895" x="85.3056846" y="27.7025895" /><node id="853057067277025901" x="85.3057067" y="27.7025901" /><node id="853057403277025895" x="85.3057403" y="27.7025895" /><node id="853057741277025842" x="85.3057741" y="27.7025842" /><node id="85305815277025771" x="85.305815" y="27.7025771" /><node id="853058524277025805" x="85.3058524" y="27.7025805" /><node id="85305977277025777" x="85.305977" y="27.7025777" /><node id="853060414277025762" x="85.3060414" y="27.7025762" /><node id="853060772277025759" x="85.3060772" y="27.7025759" /><node id="85306112277025799" x="85.306112" y="27.7025799" /><node id="853061684277026032" x="85.3061684" y="27.7026032" /><node id="853062435277026079" x="85.3062435" y="27.7026079" /><node id="853063202277026061" x="85.3063202" y="27.7026061" /><node id="85306486277025894" x="85.306486" y="27.7025894" /><node id="85306584277025915" x="85.306584" y="27.7025915" /><node id="8530702542770257" x="85.3070254" y="27.70257" /><node id="853072083277025731" x="85.3072083" y="27.7025731" /><node id="85307236327702606" x="85.3072363" y="27.702606" /><node id="85307528277025732" x="85.307528" y="27.7025732" /><node id="853075897277025607" x="85.3075897" y="27.7025607" /><node id="853101095277041292" x="85.3101095" y="27.7041292" /><node id="853100266277041506" x="85.3100266" y="27.7041506" /><node id="85309954927704261" x="85.3099549" y="27.704261" /><node id="8530995927704332" x="85.309959" y="27.704332" /><node id="853099565277044263" x="85.3099565" y="27.7044263" /><node id="85309960327704614" x="85.3099603" y="27.704614" /><node id="853099818277046898" x="85.3099818" y="27.7046898" /><node id="853100223277047646" x="85.3100223" y="27.7047646" /><node id="853111942277042819" x="85.3111942" y="27.7042819" /><node id="853112058277043315" x="85.3112058" y="27.7043315" /><node id="853112246277044122" x="85.3112246" y="27.7044122" /><node id="853112754277046065" x="85.3112754" y="27.7046065" /><node id="853112974277047221" x="85.3112974" y="27.7047221" /><node id="853113172277047914" x="85.3113172" y="27.7047914" /><node id="8531135382770492" x="85.3113538" y="27.70492" /><node id="85311356277049543" x="85.311356" y="27.7049543" /><node id="853113437277049696" x="85.3113437" y="27.7049696" /><node id="853113672277050664" x="85.3113672" y="27.7050664" /><node id="853114045277051288" x="85.3114045" y="27.7051288" /><node id="8531144127705289" x="85.311441" y="27.705289" /><node id="853097177277056149" x="85.3097177" y="27.7056149" /><node id="853097708277058115" x="85.3097708" y="27.7058115" /><node id="853098196277059438" x="85.3098196" y="27.7059438" /><node id="853091564277037565" x="85.3091564" y="27.7037565" /><node id="853091685277037551" x="85.3091685" y="27.7037551" /><node id="853091804277037523" x="85.3091804" y="27.7037523" /><node id="853091919277037483" x="85.3091919" y="27.7037483" /><node id="853092027277037432" x="85.3092027" y="27.7037432" /><node id="853092128277037369" x="85.3092128" y="27.7037369" /><node id="853092219277037297" x="85.3092219" y="27.7037297" /><node id="8530923277037215" x="85.30923" y="27.7037215" /><node id="853092369277037125" x="85.3092369" y="27.7037125" /><node id="853092434277037014" x="85.3092434" y="27.7037014" /><node id="85309248277036895" x="85.309248" y="27.7036895" /><node id="853092507277036773" x="85.3092507" y="27.7036773" /><node id="853092516277036648" x="85.3092516" y="27.7036648" /><node id="853092505277036523" x="85.3092505" y="27.7036523" /><node id="853092475277036401" x="85.3092475" y="27.7036401" /><node id="853092426277036283" x="85.3092426" y="27.7036283" /><node id="853092359277036173" x="85.3092359" y="27.7036173" /><node id="853092276277036072" x="85.3092276" y="27.7036072" /><node id="853092179277035981" x="85.3092179" y="27.7035981" /><node id="85309208277035911" x="85.309208" y="27.7035911" /><node id="853091973277035853" x="85.3091973" y="27.7035853" /><node id="853091858277035806" x="85.3091858" y="27.7035806" /><node id="853091737277035772" x="85.3091737" y="27.7035772" /><node id="853091613277035752" x="85.3091613" y="27.7035752" /><node id="853091487277035745" x="85.3091487" y="27.7035745" /><node id="853091361277035751" x="85.3091361" y="27.7035751" /><node id="853091229277035774" x="85.3091229" y="27.7035774" /><node id="853091101277035811" x="85.3091101" y="27.7035811" /><node id="85309098277035863" x="85.309098" y="27.7035863" /><node id="853090867277035928" x="85.3090867" y="27.7035928" /><node id="853090765277036005" x="85.3090765" y="27.7036005" /><node id="853090676277036094" x="85.3090676" y="27.7036094" /><node id="8530906277036193" x="85.30906" y="27.7036193" /><node id="853090539277036299" x="85.3090539" y="27.7036299" /><node id="853090495277036411" x="85.3090495" y="27.7036411" /><node id="853090467277036528" x="85.3090467" y="27.7036528" /><node id="853090457277036646" x="85.3090457" y="27.7036646" /><node id="853090464277036765" x="85.3090464" y="27.7036765" /><node id="853090489277036882" x="85.3090489" y="27.7036882" /><node id="853075532277052555" x="85.3075532" y="27.7052555" /><node id="85307521327705273" x="85.3075213" y="27.705273" /><node id="853074625277052991" x="85.3074625" y="27.7052991" /><node id="853073572277053335" x="85.3073572" y="27.7053335" /><node id="853072748277045184" x="85.3072748" y="27.7045184" /><node id="853073151277045196" x="85.3073151" y="27.7045196" /><node id="853073432277045303" x="85.3073432" y="27.7045303" /><node id="853074472277048562" x="85.3074472" y="27.7048562" /><node id="853089952277056591" x="85.3089952" y="27.7056591" /><node id="85308907277057309" x="85.308907" y="27.7057309" /><node id="853084068277057957" x="85.3084068" y="27.7057957" /><node id="853083649277056201" x="85.3083649" y="27.7056201" /><node id="853083667277056143" x="85.3083667" y="27.7056143" /><node id="853084832277055609" x="85.3084832" y="27.7055609" /><node id="853086107277055043" x="85.3086107" y="27.7055043" /><node id="85308672277054735" x="85.308672" y="27.7054735" /><node id="853076071277055586" x="85.3076071" y="27.7055586" /><node id="853077126277058408" x="85.3077126" y="27.7058408" /><node id="853077488277059664" x="85.3077488" y="27.7059664" /><node id="85307829527706161" x="85.3078295" y="27.706161" /><node id="853078462277062078" x="85.3078462" y="27.7062078" /><node id="853077738277062275" x="85.3077738" y="27.7062275" /><node id="85307788277063278" x="85.307788" y="27.7063278" /><node id="853078305277064775" x="85.3078305" y="27.7064775" /><node id="853093134277050018" x="85.3093134" y="27.7050018" /><node id="85309262277050151" x="85.309262" y="27.7050151" /><node id="853088942277051061" x="85.3088942" y="27.7051061" /><node id="853087532277051358" x="85.3087532" y="27.7051358" /><node id="853086795277051524" x="85.3086795" y="27.7051524" /><node id="853084066277051979" x="85.3084066" y="27.7051979" /><node id="8530834277052178" x="85.30834" y="27.7052178" /><node id="853120825277057589" x="85.3120825" y="27.7057589" /><node id="853106703277045349" x="85.3106703" y="27.7045349" /><node id="853106838277045877" x="85.3106838" y="27.7045877" /><node id="853109008277046695" x="85.3109008" y="27.7046695" /><node id="853109227704737" x="85.31092" y="27.704737" /><node id="853109324277047892" x="85.3109324" y="27.7047892" /><node id="853109432277048704" x="85.3109432" y="27.7048704" /><node id="853109981277051112" x="85.3109981" y="27.7051112" /><node id="853110415277052183" x="85.3110415" y="27.7052183" /><node id="85311069927705314" x="85.3110699" y="27.705314" /><node id="853111015277053752" x="85.3111015" y="27.7053752" /><node id="853111189277053957" x="85.3111189" y="27.7053957" /><node id="853111662277054203" x="85.3111662" y="27.7054203" /><node id="853103904277094598" x="85.3103904" y="27.7094598" /><node id="853103385277091662" x="85.3103385" y="27.7091662" /><node id="85310311227709022" x="85.3103112" y="27.709022" /><node id="853102937277089294" x="85.3102937" y="27.7089294" /><node id="853102486277087207" x="85.3102486" y="27.7087207" /><node id="853101991277085542" x="85.3101991" y="27.7085542" /><node id="853101548277083909" x="85.3101548" y="27.7083909" /><node id="853101193277082264" x="85.3101193" y="27.7082264" /><node id="853100763277080658" x="85.3100763" y="27.7080658" /><node id="85309951277077094" x="85.309951" y="27.7077094" /><node id="853099452277076818" x="85.3099452" y="27.7076818" /><node id="853099438277076756" x="85.3099438" y="27.7076756" /><node id="853099195277075675" x="85.3099195" y="27.7075675" /><node id="853098906277074391" x="85.3098906" y="27.7074391" /><node id="853098767277073692" x="85.3098767" y="27.7073692" /><node id="853098357277071632" x="85.3098357" y="27.7071632" /><node id="853097809277069719" x="85.3097809" y="27.7069719" /><node id="853097519277068468" x="85.3097519" y="27.7068468" /><node id="85309738127706764" x="85.3097381" y="27.706764" /><node id="853095742277060631" x="85.3095742" y="27.7060631" /><node id="85309527127705934" x="85.3095271" y="27.705934" /><node id="853112581277059251" x="85.3112581" y="27.7059251" /><node id="8531128277060204" x="85.31128" y="27.7060204" /><node id="853112358277060299" x="85.3112358" y="27.7060299" /><node id="853112569277061575" x="85.3112569" y="27.7061575" /><node id="853111386277061961" x="85.3111386" y="27.7061961" /><node id="85311171277063636" x="85.311171" y="27.7063636" /><node id="853116126277049004" x="85.3116126" y="27.7049004" /><node id="853120793277046465" x="85.3120793" y="27.7046465" /><node id="853120802277046483" x="85.3120802" y="27.7046483" /><node id="853103037277050829" x="85.3103037" y="27.7050829" /><node id="853102132277051085" x="85.3102132" y="27.7051085" /><node id="853101151277048225" x="85.3101151" y="27.7048225" /><node id="85310236427704858" x="85.3102364" y="27.704858" /><node id="853104603277050316" x="85.3104603" y="27.7050316" /><node id="853105514277049037" x="85.3105514" y="27.7049037" /><node id="853109172277048442" x="85.3109172" y="27.7048442" /><node id="853109219277048651" x="85.3109219" y="27.7048651" /><node id="853109394277048629" x="85.3109394" y="27.7048629" /><node id="853110252277048541" x="85.3110252" y="27.7048541" /><node id="853111037277048426" x="85.3111037" y="27.7048426" /><node id="853112027277048275" x="85.3112027" y="27.7048275" /><node id="853137021277029479" x="85.3137021" y="27.7029479" /><node id="853136147277030629" x="85.3136147" y="27.7030629" /><node id="85313568527703104" x="85.3135685" y="27.703104" /><node id="85313524927703132" x="85.3135249" y="27.703132" /><node id="853134699277031536" x="85.3134699" y="27.7031536" /><node id="85313411227703169" x="85.3134112" y="27.703169" /><node id="853133446277031773" x="85.3133446" y="27.7031773" /><node id="853129246277032115" x="85.3129246" y="27.7032115" /><node id="853119689277032996" x="85.3119689" y="27.7032996" /><node id="853111229277033787" x="85.3111229" y="27.7033787" /><node id="853102253277034652" x="85.3102253" y="27.7034652" /><node id="853100302277034864" x="85.3100302" y="27.7034864" /><node id="853093481277035604" x="85.3093481" y="27.7035604" /><node id="853092782277035646" x="85.3092782" y="27.7035646" /><node id="853090534277037003" x="85.3090534" y="27.7037003" /><node id="853090598277037117" x="85.3090598" y="27.7037117" /><node id="853090679277037222" x="85.3090679" y="27.7037222" /><node id="853090775277037316" x="85.3090775" y="27.7037316" /><node id="853090886277037397" x="85.3090886" y="27.7037397" /><node id="853091008277037464" x="85.3091008" y="27.7037464" /><node id="85309114277037515" x="85.309114" y="27.7037515" /><node id="853091278277037549" x="85.3091278" y="27.7037549" /><node id="85309142277037566" x="85.309142" y="27.7037566" /><node id="853120954277028341" x="85.3120954" y="27.7028341" /><node id="85312144277027234" x="85.312144" y="27.7027234" /><node id="8531213277026148" x="85.31213" y="27.7026148" /><node id="853121155277024761" x="85.3121155" y="27.7024761" /><node id="853119674277024617" x="85.3119674" y="27.7024617" /><node id="853081683277024522" x="85.3081683" y="27.7024522" /><node id="85308206527702442" x="85.3082065" y="27.702442" /><node id="853084496277024816" x="85.3084496" y="27.7024816" /><node id="8530857277025032" x="85.30857" y="27.7025032" /><node id="853087581277024889" x="85.3087581" y="27.7024889" /><node id="853088029277024762" x="85.3088029" y="27.7024762" /><node id="853128642277022441" x="85.3128642" y="27.7022441" /><node id="853133681277022323" x="85.3133681" y="27.7022323" /><node id="853081567277056838" x="85.3081567" y="27.7056838" /><node id="853082422277056715" x="85.3082422" y="27.7056715" /><node id="853082229277055856" x="85.3082229" y="27.7055856" /><node id="85310213727703393" x="85.3102137" y="27.703393" /><node id="853103371277033383" x="85.3103371" y="27.7033383" /><node id="853107257277031313" x="85.3107257" y="27.7031313" /><node id="853110845277029989" x="85.3110845" y="27.7029989" /><node id="853108291277019232" x="85.3108291" y="27.7019232" /><node id="853109114277018968" x="85.3109114" y="27.7018968" /><node id="853110259277017045" x="85.3110259" y="27.7017045" /><node id="853111097277015598" x="85.3111097" y="27.7015598" /><node id="853111819277014872" x="85.3111819" y="27.7014872" /><node id="853113494277014078" x="85.3113494" y="27.7014078" /><node id="85311499277012926" x="85.311499" y="27.7012926" /><node id="85311524527701273" x="85.3115245" y="27.701273" /><node id="853116282277011701" x="85.3116282" y="27.7011701" /><node id="853116865277011211" x="85.3116865" y="27.7011211" /><node id="853117021277010932" x="85.3117021" y="27.7010932" /><node id="853116985277010679" x="85.3116985" y="27.7010679" /><node id="8531169842770097" x="85.3116984" y="27.70097" /><node id="853065293277035404" x="85.3065293" y="27.7035404" /><node id="853128966277027409" x="85.3128966" y="27.7027409" /><node id="853126507277027644" x="85.3126507" y="27.7027644" /><node id="85312538277027703" x="85.312538" y="27.7027703" /><node id="853124249277027985" x="85.3124249" y="27.7027985" /><node id="85312344727702808" x="85.3123447" y="27.702808" /><node id="85312269127702817" x="85.3122691" y="27.702817" /><node id="853122482277028145" x="85.3122482" y="27.7028145" /><node id="853062997277029952" x="85.3062997" y="27.7029952" /><node id="853063103277030564" x="85.3063103" y="27.7030564" /><node id="853063598277032331" x="85.3063598" y="27.7032331" /><node id="853063692277032988" x="85.3063692" y="27.7032988" /><node id="853064424277034097" x="85.3064424" y="27.7034097" /><node id="853065058277