<?xml version="1.0" encoding="UTF-8"?>

<!-- generated on 2023-09-29 21:24:45 by Eclipse SUMO netconvert Version 1.18.0
<configuration xmlns:xsi="http://www.w3.org/2001/XMLSchema-instance" xsi:noNamespaceSchemaLocation="http://sumo.dlr.de/xsd/netconvertConfiguration.xsd">

    <input>
        <osm-files value="basantapur.osm"/>
    </input>

    <output>
        <output-file value="test.net.xml"/>
    </output>

    <projection>
        <proj.utm value="true"/>
    </projection>

</configuration>
-->

<net version="1.16" junctionCornerDetail="5" limitTurnSpeed="5.50" xmlns:xsi="http://www.w3.org/2001/XMLSchema-instance" xsi:noNamespaceSchemaLocation="http://sumo.dlr.de/xsd/net_file.xsd">

    <location netOffset="-332562.67,-3064895.59" convBoundary="0.00,0.00,1516.32,1608.97" origBoundary="85.301856,27.697949,85.317167,27.712584" projParameter="+proj=utm +zone=45 +ellps=WGS84 +datum=WGS84 +units=m +no_defs"/>

    <type id="highway.footway" priority="1" numLanes="1" speed="2.78" allow="pedestrian" oneway="1" width="2.00"/>
    <type id="highway.living_street" priority="2" numLanes="1" speed="2.78" disallow="tram rail_urban rail rail_electric rail_fast ship" oneway="0"/>
    <type id="highway.path" priority="1" numLanes="1" speed="5.56" allow="pedestrian bicycle" oneway="0" width="2.00"/>
    <type id="highway.pedestrian" priority="1" numLanes="1" speed="2.78" allow="pedestrian" oneway="1" width="2.00"/>
    <type id="highway.primary" priority="12" numLanes="2" speed="27.78" disallow="tram rail_urban rail rail_electric rail_fast ship" oneway="0"/>
    <type id="highway.primary_link" priority="7" numLanes="1" speed="22.22" disallow="tram rail_urban rail rail_electric rail_fast ship" oneway="0"/>
    <type id="highway.residential" priority="3" numLanes="1" speed="13.89" disallow="tram rail_urban rail rail_electric rail_fast ship" oneway="0"/>
    <type id="highway.secondary" priority="11" numLanes="1" speed="27.78" disallow="tram rail_urban rail rail_electric rail_fast ship" oneway="0"/>
    <type id="highway.service" priority="1" numLanes="1" speed="5.56" allow="pedestrian delivery bicycle" oneway="0"/>
    <type id="highway.steps" priority="1" numLanes="1" speed="1.39" allow="pedestrian" oneway="1" width="2.00"/>
    <type id="highway.tertiary" priority="10" numLanes="1" speed="22.22" disallow="tram rail_urban rail rail_electric rail_fast ship" oneway="0"/>
    <type id="highway.unclassified" priority="4" numLanes="1" speed="13.89" disallow="tram rail_urban rail rail_electric rail_fast ship" oneway="0"/>

    <edge id=":10173069182_0" function="internal">
        <lane id=":10173069182_0_0" index="0" allow="pedestrian bicycle" speed="5.56" length="2.49" width="2.00" shape="781.51,578.37 780.81,578.51 780.36,578.75 779.91,579.02 779.21,579.23"/>
    </edge>
    <edge id=":10173069182_1" function="internal">
        <lane id=":10173069182_1_0" index="0" allow="pedestrian bicycle" speed="5.56" length="2.73" width="2.00" shape="778.70,576.07 779.50,576.04 780.04,576.17 780.59,576.33 781.39,576.37"/>
    </edge>
    <edge id=":10173069182_2" function="internal">
        <lane id=":10173069182_2_0" index="0" allow="pedestrian delivery bicycle" speed="3.65" length="1.26" shape="778.70,576.07 779.84,576.59"/>
    </edge>
    <edge id=":10173069182_3" function="internal">
        <lane id=":10173069182_3_0" index="0" allow="pedestrian delivery bicycle" speed="3.65" length="3.42" shape="779.84,576.59 780.01,576.67 780.53,577.40 780.27,578.25 779.21,579.23"/>
    </edge>
    <edge id=":10173069186_0" function="internal">
        <lane id=":10173069186_0_0" index="0" disallow="tram rail_urban rail rail_electric rail_fast ship" speed="22.22" length="7.08" shape="812.00,603.37 804.99,604.33"/>
    </edge>
    <edge id=":10173069186_1" function="internal">
        <lane id=":10173069186_1_0" index="0" allow="pedestrian bicycle" speed="6.02" length="6.44" width="2.00" shape="812.00,603.37 810.09,603.43 808.58,603.02 807.45,602.14 806.72,600.80"/>
    </edge>
    <edge id=":10173069186_2" function="internal">
        <lane id=":10173069186_2_0" index="0" allow="pedestrian bicycle" speed="5.18" length="6.58" width="2.00" shape="808.61,600.15 808.84,601.73 808.31,602.95 807.02,603.82 804.99,604.33"/>
    </edge>
    <edge id=":10173069186_3" function="internal">
        <lane id=":10173069186_3_0" index="0" allow="pedestrian bicycle" speed="2.89" length="2.92" width="2.00" shape="808.61,600.15 808.38,601.02 807.99,601.42 807.43,601.34 806.72,600.80"/>
    </edge>
    <edge id=":10561953547_0" function="internal">
        <lane id=":10561953547_0_0" index="0" allow="pedestrian delivery bicycle" speed="3.65" length="4.67" shape="696.24,1290.18 697.57,1290.74 698.12,1291.45 697.88,1292.31 696.85,1293.32"/>
    </edge>
    <edge id=":10561953560_0" function="internal">
        <lane id=":10561953560_0_0" index="0" allow="pedestrian delivery bicycle" speed="3.65" length="4.67" shape="669.51,1366.15 668.98,1367.49 668.28,1368.04 667.41,1367.82 666.38,1366.81"/>
    </edge>
    <edge id=":10595862270_0" function="internal">
        <lane id=":10595862270_0_0" index="0" allow="pedestrian delivery bicycle" speed="3.65" length="4.67" shape="557.70,758.62 557.28,760.00 556.63,760.61 555.75,760.45 554.64,759.53"/>
    </edge>
    <edge id=":10690430739_0" function="internal">
        <lane id=":10690430739_0_0" index="0" allow="pedestrian delivery bicycle" speed="3.65" length="4.67" shape="1102.81,518.09 1102.03,519.31 1101.24,519.73 1100.43,519.35 1099.61,518.16"/>
    </edge>
    <edge id=":10690430740_0" function="internal">
        <lane id=":10690430740_0_0" index="0" allow="pedestrian delivery bicycle" speed="5.04" length="5.00" shape="1098.45,466.75 1098.23,465.40 1097.62,464.45 1096.64,463.89 1095.28,463.73"/>
    </edge>
    <edge id=":10690430740_1" function="internal">
        <lane id=":10690430740_1_0" index="0" allow="pedestrian delivery bicycle" speed="5.56" length="10.11" shape="1098.45,466.75 1098.78,464.00 1099.89,461.98 1101.80,460.72 1104.49,460.20"/>
    </edge>
    <edge id=":10690430740_2" function="internal">
        <lane id=":10690430740_2_0" index="0" allow="pedestrian delivery bicycle" speed="3.65" length="4.67" shape="1098.45,466.75 1099.22,465.54 1100.01,465.12 1100.82,465.50 1101.65,466.68"/>
    </edge>
    <edge id=":10690430740_3" function="internal">
        <lane id=":10690430740_3_0" index="0" allow="pedestrian delivery bicycle" speed="5.09" length="5.03" shape="1104.64,463.40 1103.31,463.66 1102.36,464.29 1101.81,465.30 1101.65,466.68"/>
    </edge>
    <edge id=":10690430740_4" function="internal">
        <lane id=":10690430740_4_0" index="0" allow="pedestrian delivery bicycle" speed="5.56" length="9.36" shape="1104.64,463.40 1095.28,463.73"/>
    </edge>
    <edge id=":10690430740_5" function="internal">
        <lane id=":10690430740_5_0" index="0" allow="pedestrian delivery bicycle" speed="3.65" length="4.67" shape="1104.64,463.40 1103.40,462.66 1102.97,461.88 1103.33,461.06 1104.49,460.20"/>
    </edge>
    <edge id=":10690430740_6" function="internal">
        <lane id=":10690430740_6_0" index="0" allow="pedestrian delivery bicycle" speed="5.56" length="9.29" shape="1095.21,460.53 1104.49,460.20"/>
    </edge>
    <edge id=":10690430740_7" function="internal">
        <lane id=":10690430740_7_0" index="0" allow="pedestrian delivery bicycle" speed="5.56" length="10.17" shape="1095.21,460.53 1097.97,460.86 1099.97,461.99 1101.19,463.93 1101.65,466.68"/>
    </edge>
    <edge id=":10690430740_8" function="internal">
        <lane id=":10690430740_8_0" index="0" allow="pedestrian delivery bicycle" speed="3.65" length="4.67" shape="1095.21,460.53 1096.42,461.30 1096.84,462.09 1096.46,462.90 1095.28,463.73"/>
    </edge>
    <edge id=":10690430741_0" function="internal">
        <lane id=":10690430741_0_0" index="0" allow="pedestrian delivery bicycle" speed="3.65" length="4.67" shape="1136.00,458.75 1137.23,459.49 1137.67,460.27 1137.31,461.09 1136.15,461.94"/>
    </edge>
    <edge id=":10690430742_0" function="internal">
        <lane id=":10690430742_0_0" index="0" allow="pedestrian delivery bicycle" speed="5.17" length="5.16" shape="1091.26,463.82 1089.82,464.04 1088.78,464.64 1088.15,465.60 1087.92,466.93"/>
    </edge>
    <edge id=":10690430742_1" function="internal">
        <lane id=":10690430742_1_0" index="0" allow="pedestrian delivery bicycle" speed="6.83" length="10.36" shape="1091.26,463.82 1088.43,463.48 1086.42,462.31 1085.23,460.31 1084.87,457.48"/>
    </edge>
    <edge id=":10690430742_2" function="internal">
        <lane id=":10690430742_2_0" index="0" allow="pedestrian delivery bicycle" speed="3.65" length="4.67" shape="1091.26,463.82 1090.04,463.05 1089.62,462.26 1090.00,461.45 1091.19,460.62"/>
    </edge>
    <edge id=":10690430742_3" function="internal">
        <lane id=":10690430742_3_0" index="0" allow="pedestrian delivery bicycle" speed="5.00" length="5.05" shape="1088.07,457.53 1088.25,458.91 1088.83,459.89 1089.80,460.46 1091.19,460.62"/>
    </edge>
    <edge id=":10690430742_4" function="internal">
        <lane id=":10690430742_4_0" index="0" disallow="tram rail_urban rail rail_electric rail_fast ship" speed="13.89" length="9.40" shape="1088.07,457.53 1087.92,466.93"/>
    </edge>
    <edge id=":10690430742_5" function="internal">
        <lane id=":10690430742_5_0" index="0" disallow="tram rail_urban rail rail_electric rail_fast ship" speed="13.89" length="9.40" shape="1084.72,466.88 1084.87,457.48"/>
    </edge>
    <edge id=":10690430742_6" function="internal">
        <lane id=":10690430742_6_0" index="0" allow="pedestrian delivery bicycle" speed="6.96" length="3.19" shape="1084.72,466.88 1085.16,464.20 1085.41,463.80"/>
    </edge>
    <edge id=":10690430742_7" function="internal">
        <lane id=":10690430742_7_0" index="0" allow="pedestrian delivery bicycle" speed="6.96" length="6.99" shape="1085.41,463.80 1086.39,462.26 1088.40,461.07 1091.19,460.62"/>
    </edge>
    <edge id=":10690495290_0" function="internal">
        <lane id=":10690495290_0_0" index="0" allow="pedestrian delivery bicycle" speed="3.65" length="4.67" shape="747.62,453.07 747.79,451.63 748.32,450.92 749.22,450.91 750.47,451.61"/>
    </edge>
    <edge id=":10690495291_0" function="internal">
        <lane id=":10690495291_0_0" index="0" allow="pedestrian delivery bicycle" speed="3.65" length="4.67" shape="765.47,482.37 765.25,483.80 764.70,484.50 763.81,484.48 762.57,483.74"/>
    </edge>
    <edge id=":10690495297_0" function="internal">
        <lane id=":10690495297_0_0" index="0" allow="pedestrian delivery bicycle" speed="3.65" length="4.67" shape="1097.18,665.23 1095.93,664.52 1095.47,663.75 1095.81,662.93 1096.94,662.04"/>
    </edge>
    <edge id=":10690495304_0" function="internal">
        <lane id=":10690495304_0_0" index="0" disallow="tram rail_urban rail rail_electric rail_fast ship" speed="27.78" length="6.87" shape="1173.37,613.82 1171.94,620.54"/>
        <lane id=":10690495304_0_1" index="1" disallow="tram rail_urban rail rail_electric rail_fast ship" speed="27.78" length="6.87" shape="1170.24,613.15 1168.81,619.87"/>
    </edge>
    <edge id=":10690495304_2" function="internal">
        <lane id=":10690495304_2_0" index="0" allow="pedestrian delivery bicycle" speed="7.17" length="8.53" shape="1170.24,613.15 1169.46,615.75 1168.38,617.67 1166.99,618.89 1165.31,619.43"/>
    </edge>
    <edge id=":10690495304_3" function="internal">
        <lane id=":10690495304_3_0" index="0" allow="pedestrian delivery bicycle" speed="5.16" length="6.56" shape="1164.98,616.24 1166.98,616.29 1168.29,616.91 1168.90,618.10 1168.81,619.87"/>
    </edge>
    <edge id=":10690495304_4" function="internal">
        <lane id=":10690495304_4_0" index="0" allow="pedestrian delivery bicycle" speed="3.65" length="4.67" shape="1164.98,616.24 1166.25,616.91 1166.73,617.67 1166.42,618.51 1165.31,619.43"/>
    </edge>
    <edge id=":10690504605_0" function="internal">
        <lane id=":10690504605_0_0" index="0" allow="pedestrian delivery bicycle" speed="3.65" length="4.67" shape="773.53,656.50 774.88,657.00 775.45,657.69 775.25,658.56 774.26,659.61"/>
    </edge>
    <edge id=":10690504607_0" function="internal">
        <lane id=":10690504607_0_0" index="0" allow="pedestrian delivery bicycle" speed="5.74" length="5.76" shape="728.65,668.31 726.94,668.78 725.71,669.52 724.96,670.53 724.69,671.80"/>
    </edge>
    <edge id=":10690504607_1" function="internal">
        <lane id=":10690504607_1_0" index="0" allow="pedestrian delivery bicycle" speed="6.75" length="10.99" shape="728.65,668.31 725.57,668.40 723.35,667.45 722.00,665.45 721.52,662.40"/>
    </edge>
    <edge id=":10690504607_2" function="internal">
        <lane id=":10690504607_2_0" index="0" allow="pedestrian delivery bicycle" speed="3.65" length="4.67" shape="728.65,668.31 727.33,667.73 726.80,667.01 727.05,666.15 728.10,665.16"/>
    </edge>
    <edge id=":10690504607_3" function="internal">
        <lane id=":10690504607_3_0" index="0" allow="pedestrian delivery bicycle" speed="4.89" length="5.20" shape="724.72,662.36 724.95,663.80 725.59,664.75 726.64,665.20 728.10,665.16"/>
    </edge>
    <edge id=":10690504607_4" function="internal">
        <lane id=":10690504607_4_0" index="0" disallow="tram rail_urban rail rail_electric rail_fast ship" speed="22.22" length="9.44" shape="724.72,662.36 724.69,671.80"/>
    </edge>
    <edge id=":10690504607_5" function="internal">
        <lane id=":10690504607_5_0" index="0" disallow="tram rail_urban rail rail_electric rail_fast ship" speed="22.22" length="9.32" shape="721.49,671.72 721.52,662.40"/>
    </edge>
    <edge id=":10690504607_6" function="internal">
        <lane id=":10690504607_6_0" index="0" allow="pedestrian delivery bicycle" speed="7.41" length="2.84" shape="721.49,671.72 721.95,669.27 722.15,668.98"/>
    </edge>
    <edge id=":10690504607_7" function="internal">
        <lane id=":10690504607_7_0" index="0" allow="pedestrian delivery bicycle" speed="7.41" length="7.35" shape="722.15,668.98 723.21,667.36 725.26,665.99 728.10,665.16"/>
    </edge>
    <edge id=":10779882929_0" function="internal">
        <lane id=":10779882929_0_0" index="0" disallow="tram rail_urban rail rail_electric rail_fast ship" speed="13.89" length="5.03" shape="1016.16,1219.83 1015.02,1214.93"/>
    </edge>
    <edge id=":10779882929_1" function="internal">
        <lane id=":10779882929_1_0" index="0" disallow="tram rail_urban rail rail_electric rail_fast ship" speed="13.89" length="5.03" shape="1018.13,1214.17 1019.27,1219.07"/>
    </edge>
    <edge id=":10779882932_0" function="internal">
        <lane id=":10779882932_0_0" index="0" disallow="tram rail_urban rail rail_electric rail_fast ship" speed="13.89" length="5.28" shape="955.20,1223.36 952.97,1228.14"/>
    </edge>
    <edge id=":10779882932_1" function="internal">
        <lane id=":10779882932_1_0" index="0" disallow="tram rail_urban rail rail_electric rail_fast ship" speed="13.89" length="5.28" shape="950.07,1226.79 952.30,1222.01"/>
    </edge>
    <edge id=":10779882939_0" function="internal">
        <lane id=":10779882939_0_0" index="0" disallow="tram rail_urban rail rail_electric rail_fast ship" speed="22.22" length="6.93" shape="784.14,972.13 782.89,965.32"/>
    </edge>
    <edge id=":10779882939_1" function="internal">
        <lane id=":10779882939_1_0" index="0" allow="pedestrian bicycle" speed="6.05" length="2.84" width="2.00" shape="784.14,972.13 784.12,969.55 784.24,969.33"/>
    </edge>
    <edge id=":10779882939_7" function="internal">
        <lane id=":10779882939_7_0" index="0" allow="pedestrian bicycle" speed="6.05" length="6.60" width="2.00" shape="784.24,969.33 785.06,967.83 786.94,966.99 789.77,967.01"/>
    </edge>
    <edge id=":10779882939_2" function="internal">
        <lane id=":10779882939_2_0" index="0" allow="pedestrian bicycle" speed="4.15" length="4.24" width="2.00" shape="789.49,968.99 788.35,969.02 787.60,969.46 787.25,970.33 787.30,971.62"/>
    </edge>
    <edge id=":10779882939_3" function="internal">
        <lane id=":10779882939_3_0" index="0" allow="pedestrian bicycle" speed="6.99" length="7.97" width="2.00" shape="789.49,968.99 786.84,968.45 784.86,967.66 783.54,966.62 782.89,965.32"/>
    </edge>
    <edge id=":10779882939_4" function="internal">
        <lane id=":10779882939_4_0" index="0" allow="pedestrian bicycle" speed="2.89" length="2.92" width="2.00" shape="789.49,968.99 788.82,968.40 788.64,967.87 788.96,967.41 789.77,967.01"/>
    </edge>
    <edge id=":10779882939_5" function="internal">
        <lane id=":10779882939_5_0" index="0" allow="pedestrian bicycle" speed="5.63" length="4.73" width="2.00" shape="786.02,964.63 786.41,965.50 787.17,966.18 788.29,966.69 789.77,967.01"/>
    </edge>
    <edge id=":10779882939_6" function="internal">
        <lane id=":10779882939_6_0" index="0" disallow="tram rail_urban rail rail_electric rail_fast ship" speed="22.22" length="7.11" shape="786.02,964.63 787.30,971.62"/>
    </edge>
    <edge id=":10779882941_0" function="internal">
        <lane id=":10779882941_0_0" index="0" allow="pedestrian bicycle" speed="2.89" length="2.92" width="2.00" shape="810.15,960.54 811.03,960.74 811.43,961.12 811.38,961.68 810.85,962.41"/>
    </edge>
    <edge id=":10779882943_0" function="internal">
        <lane id=":10779882943_0_0" index="0" allow="pedestrian bicycle" speed="9.72" length="11.23" width="2.00" shape="785.04,901.61 784.35,898.44 784.02,895.87 783.24,893.63 781.16,891.44"/>
    </edge>
    <edge id=":10779882943_1" function="internal">
        <lane id=":10779882943_1_0" index="0" allow="pedestrian bicycle" speed="6.40" length="14.98" width="2.00" shape="785.04,901.61 784.07,896.94 784.93,894.53 787.60,894.36 792.10,896.45"/>
    </edge>
    <edge id=":10779882943_2" function="internal">
        <lane id=":10779882943_2_0" index="0" allow="pedestrian bicycle" speed="2.89" length="2.92" width="2.00" shape="785.04,901.61 785.29,900.75 785.69,900.35 786.24,900.44 786.95,901.00"/>
    </edge>
    <edge id=":10779882943_3" function="internal">
        <lane id=":10779882943_3_0" index="0" allow="pedestrian bicycle" speed="4.49" length="6.20" width="2.00" shape="789.85,898.84 787.99,897.98 786.89,898.05 786.54,899.06 786.95,901.00"/>
    </edge>
    <edge id=":10779882943_4" function="internal">
        <lane id=":10779882943_4_0" index="0" disallow="tram rail_urban rail rail_electric rail_fast ship" speed="13.89" length="11.44" shape="789.85,898.84 787.24,897.03 785.39,895.31 783.60,893.51 781.16,891.44"/>
    </edge>
    <edge id=":10779882943_5" function="internal">
        <lane id=":10779882943_5_0" index="0" disallow="tram rail_urban rail rail_electric rail_fast ship" speed="13.89" length="11.79" shape="783.09,888.89 785.58,890.98 787.48,892.84 789.44,894.62 792.10,896.45"/>
    </edge>
    <edge id=":10779882943_6" function="internal">
        <lane id=":10779882943_6_0" index="0" allow="pedestrian bicycle" speed="9.72" length="3.36" width="2.00" shape="783.09,888.89 785.16,891.38 785.19,891.49"/>
    </edge>
    <edge id=":10779882943_7" function="internal">
        <lane id=":10779882943_7_0" index="0" allow="pedestrian bicycle" speed="9.72" length="9.69" width="2.00" shape="785.19,891.49 785.94,894.29 786.25,897.52 786.95,901.00"/>
    </edge>
    <edge id=":10779882944_0" function="internal">
        <lane id=":10779882944_0_0" index="0" allow="pedestrian bicycle" speed="5.32" length="4.39" width="2.00" shape="792.85,911.22 791.68,911.71 790.82,912.38 790.28,913.22 790.05,914.23"/>
    </edge>
    <edge id=":10779882944_1" function="internal">
        <lane id=":10779882944_1_0" index="0" allow="pedestrian bicycle" speed="5.56" length="7.22" width="2.00" shape="792.85,911.22 790.90,911.53 789.31,911.15 788.08,910.07 787.21,908.29"/>
    </edge>
    <edge id=":10779882944_2" function="internal">
        <lane id=":10779882944_2_0" index="0" allow="pedestrian bicycle" speed="2.89" length="2.92" width="2.00" shape="792.85,911.22 791.98,910.96 791.60,910.56 791.69,910.01 792.26,909.31"/>
    </edge>
    <edge id=":10779882944_3" function="internal">
        <lane id=":10779882944_3_0" index="0" allow="pedestrian bicycle" speed="4.45" length="4.02" width="2.00" shape="789.11,907.68 789.60,908.67 790.28,909.27 791.17,909.48 792.26,909.31"/>
    </edge>
    <edge id=":10779882944_4" function="internal">
        <lane id=":10779882944_4_0" index="0" allow="pedestrian bicycle" speed="5.56" length="6.69" width="2.00" shape="789.11,907.68 789.72,909.56 790.04,910.89 790.14,912.25 790.05,914.23"/>
    </edge>
    <edge id=":10779882944_5" function="internal">
        <lane id=":10779882944_5_0" index="0" allow="pedestrian bicycle" speed="2.89" length="2.92" width="2.00" shape="789.11,907.68 788.87,908.55 788.47,908.94 787.92,908.85 787.21,908.29"/>
    </edge>
    <edge id=":10779882944_6" function="internal">
        <lane id=":10779882944_6_0" index="0" allow="pedestrian bicycle" speed="5.56" length="5.93" width="2.00" shape="788.05,914.10 788.13,912.35 788.04,911.15 787.75,909.97 787.21,908.29"/>
    </edge>
    <edge id=":10779882944_7" function="internal">
        <lane id=":10779882944_7_0" index="0" allow="pedestrian bicycle" speed="5.56" length="6.82" width="2.00" shape="788.05,914.10 788.40,912.46 789.22,911.12 790.50,910.07 792.26,909.31"/>
    </edge>
    <edge id=":10779882944_8" function="internal">
        <lane id=":10779882944_8_0" index="0" allow="pedestrian bicycle" speed="2.89" length="2.92" width="2.00" shape="788.05,914.10 788.60,913.38 789.12,913.16 789.60,913.45 790.05,914.23"/>
    </edge>
    <edge id=":10779882946_0" function="internal">
        <lane id=":10779882946_0_0" index="0" allow="pedestrian bicycle" speed="5.05" length="4.73" width="2.00" shape="801.71,905.88 800.69,905.52 799.69,905.66 798.71,906.28 797.74,907.40"/>
    </edge>
    <edge id=":10779882946_1" function="internal">
        <lane id=":10779882946_1_0" index="0" disallow="tram rail_urban rail rail_electric rail_fast ship" speed="13.89" length="7.01" shape="801.71,905.88 795.68,902.30"/>
    </edge>
    <edge id=":10779882946_2" function="internal">
        <lane id=":10779882946_2_0" index="0" disallow="tram rail_urban rail rail_electric rail_fast ship" speed="13.89" length="7.01" shape="797.32,899.55 803.34,903.13"/>
    </edge>
    <edge id=":10779882946_3" function="internal">
        <lane id=":10779882946_3_0" index="0" allow="pedestrian bicycle" speed="6.35" length="2.45" width="2.00" shape="797.32,899.55 798.91,900.98 799.01,901.27"/>
    </edge>
    <edge id=":10779882946_7" function="internal">
        <lane id=":10779882946_7_0" index="0" allow="pedestrian bicycle" speed="6.35" length="6.61" width="2.00" shape="799.01,901.27 799.52,902.76 799.13,904.90 797.74,907.40"/>
    </edge>
    <edge id=":10779882946_4" function="internal">
        <lane id=":10779882946_4_0" index="0" allow="pedestrian bicycle" speed="4.58" length="4.59" width="2.00" shape="796.11,906.25 796.77,905.02 796.92,903.96 796.55,903.05 795.68,902.30"/>
    </edge>
    <edge id=":10779882946_5" function="internal">
        <lane id=":10779882946_5_0" index="0" allow="pedestrian bicycle" speed="6.46" length="8.74" width="2.00" shape="796.11,906.25 797.94,904.09 799.75,902.85 801.56,902.54 803.34,903.13"/>
    </edge>
    <edge id=":10779882946_6" function="internal">
        <lane id=":10779882946_6_0" index="0" allow="pedestrian bicycle" speed="2.89" length="2.92" width="2.00" shape="796.11,906.25 796.95,905.92 797.50,906.00 797.77,906.50 797.74,907.40"/>
    </edge>
    <edge id=":10779882947_0" function="internal">
        <lane id=":10779882947_0_0" index="0" allow="pedestrian bicycle" speed="2.89" length="2.92" width="2.00" shape="849.99,945.81 849.10,945.70 848.65,945.36 848.65,944.80 849.10,944.02"/>
    </edge>
    <edge id=":10779882948_0" function="internal">
        <lane id=":10779882948_0_0" index="0" allow="pedestrian bicycle" speed="7.22" length="6.50" width="2.00" shape="861.21,941.81 860.28,941.57 858.95,941.74 857.21,942.31 855.05,943.29"/>
    </edge>
    <edge id=":10779882948_1" function="internal">
        <lane id=":10779882948_1_0" index="0" disallow="tram rail_urban rail rail_electric rail_fast ship" speed="13.89" length="7.73" shape="861.21,941.81 854.61,937.79"/>
    </edge>
    <edge id=":10779882948_2" function="internal">
        <lane id=":10779882948_2_0" index="0" disallow="tram rail_urban rail rail_electric rail_fast ship" speed="13.89" length="7.73" shape="856.27,935.06 862.87,939.08"/>
    </edge>
    <edge id=":10779882948_3" function="internal">
        <lane id=":10779882948_3_0" index="0" allow="pedestrian bicycle" speed="6.19" length="3.40" width="2.00" shape="856.27,935.06 858.78,937.14 858.82,937.28"/>
    </edge>
    <edge id=":10779882948_7" function="internal">
        <lane id=":10779882948_7_0" index="0" allow="pedestrian bicycle" speed="6.19" length="8.14" width="2.00" shape="858.82,937.28 859.41,939.21 858.17,941.26 855.05,943.29"/>
    </edge>
    <edge id=":10779882948_4" function="internal">
        <lane id=":10779882948_4_0" index="0" allow="pedestrian bicycle" speed="4.24" length="5.19" width="2.00" shape="854.16,941.50 855.54,940.60 856.07,939.68 855.76,938.74 854.61,937.79"/>
    </edge>
    <edge id=":10779882948_5" function="internal">
        <lane id=":10779882948_5_0" index="0" allow="pedestrian bicycle" speed="8.41" length="9.24" width="2.00" shape="854.16,941.50 857.32,940.04 859.83,939.15 861.68,938.83 862.87,939.08"/>
    </edge>
    <edge id=":10779882948_6" function="internal">
        <lane id=":10779882948_6_0" index="0" allow="pedestrian bicycle" speed="2.89" length="2.92" width="2.00" shape="854.16,941.50 855.05,941.61 855.50,941.95 855.50,942.51 855.05,943.29"/>
    </edge>
    <edge id=":10779882949_0" function="internal">
        <lane id=":10779882949_0_0" index="0" disallow="tram rail_urban rail rail_electric rail_fast ship" speed="6.31" length="9.04" shape="767.83,897.60 766.94,895.26 765.52,893.83 763.57,893.33 761.10,893.76"/>
    </edge>
    <edge id=":10779882949_1" function="internal">
        <lane id=":10779882949_1_0" index="0" disallow="tram rail_urban rail rail_electric rail_fast ship" speed="22.22" length="11.18" shape="767.83,897.60 767.15,894.52 766.61,892.14 765.97,889.79 765.00,886.79"/>
    </edge>
    <edge id=":10779882949_2" function="internal">
        <lane id=":10779882949_2_0" index="0" disallow="tram rail_urban rail rail_electric rail_fast ship" speed="3.65" length="1.44" shape="767.83,897.60 768.35,896.26"/>
    </edge>
    <edge id=":10779882949_9" function="internal">
        <lane id=":10779882949_9_0" index="0" disallow="tram rail_urban rail rail_electric rail_fast ship" speed="3.65" length="3.23" shape="768.35,896.26 769.04,895.69 769.91,895.91 770.95,896.91"/>
    </edge>
    <edge id=":10779882949_3" function="internal">
        <lane id=":10779882949_3_0" index="0" disallow="tram rail_urban rail rail_electric rail_fast ship" speed="22.22" length="11.53" shape="768.03,885.76 769.02,888.82 769.69,891.28 770.26,893.77 770.95,896.91"/>
    </edge>
    <edge id=":10779882949_4" function="internal">
        <lane id=":10779882949_4_0" index="0" disallow="tram rail_urban rail rail_electric rail_fast ship" speed="7.33" length="2.45" shape="768.03,885.76 768.26,888.20"/>
    </edge>
    <edge id=":10779882949_5" function="internal">
        <lane id=":10779882949_5_0" index="0" disallow="tram rail_urban rail rail_electric rail_fast ship" speed="3.65" length="1.44" shape="768.03,885.76 767.66,887.16"/>
    </edge>
    <edge id=":10779882949_10" function="internal">
        <lane id=":10779882949_10_0" index="0" disallow="tram rail_urban rail rail_electric rail_fast ship" speed="7.33" length="9.43" shape="768.26,888.20 767.18,890.35 764.79,892.20 761.10,893.76"/>
    </edge>
    <edge id=":10779882949_11" function="internal">
        <lane id=":10779882949_11_0" index="0" disallow="tram rail_urban rail rail_electric rail_fast ship" speed="3.65" length="3.23" shape="767.66,887.16 767.03,887.79 766.15,887.67 765.00,886.79"/>
    </edge>
    <edge id=":10779882949_6" function="internal">
        <lane id=":10779882949_6_0" index="0" disallow="tram rail_urban rail rail_electric rail_fast ship" speed="5.71" length="6.79" shape="760.11,890.71 762.52,889.79 764.14,888.82 764.97,887.83 765.00,886.79"/>
    </edge>
    <edge id=":10779882949_7" function="internal">
        <lane id=":10779882949_7_0" index="0" disallow="tram rail_urban rail rail_electric rail_fast ship" speed="7.84" length="14.56" shape="760.11,890.71 764.10,890.03 767.23,890.83 769.52,893.13 770.95,896.91"/>
    </edge>
    <edge id=":10779882949_8" function="internal">
        <lane id=":10779882949_8_0" index="0" disallow="tram rail_urban rail rail_electric rail_fast ship" speed="3.65" length="4.67" shape="760.11,890.71 761.50,891.10 762.13,891.74 761.99,892.63 761.10,893.76"/>
    </edge>
    <edge id=":10917744501_0" function="internal">
        <lane id=":10917744501_0_0" index="0" disallow="tram rail_urban rail rail_electric rail_fast ship" speed="13.89" length="2.92" shape="1095.84,562.41 1095.67,565.32"/>
    </edge>
    <edge id=":10917744501_1" function="internal">
        <lane id=":10917744501_1_0" index="0" disallow="tram rail_urban rail rail_electric rail_fast ship" speed="13.89" length="2.92" shape="1092.47,565.13 1092.65,562.22"/>
    </edge>
    <edge id=":10917744502_0" function="internal">
        <lane id=":10917744502_0_0" index="0" allow="pedestrian bicycle" speed="2.89" length="2.92" width="2.00" shape="1138.58,408.02 1139.35,408.48 1139.63,408.96 1139.41,409.48 1138.69,410.02"/>
    </edge>
    <edge id=":11037206170_0" function="internal">
        <lane id=":11037206170_0_0" index="0" disallow="tram rail_urban rail rail_electric rail_fast ship" speed="13.89" length="7.02" shape="814.63,984.33 807.91,986.38"/>