<?xml version="1.0" encoding="UTF-8"?>

<!-- generated on 2023-09-29 22:03:04.183141 by randomTrips.py v1_18_0+0000-03ecfdea036
<configuration>
    <net-file value="basantapur.net.xml"/>
    <output-trip-file value="basantapur_trips.rou.xml"/>
    <vehicle-class value="passenger"/>
    <random value="True"/>
    <validate value="True"/>
    <random-depart value="True"/>
</configuration>
-->

<!-- generated on 2023-09-29 22:03:03 by Eclipse SUMO duarouter Version 1.18.0
<configuration xmlns:xsi="http://www.w3.org/2001/XMLSchema-instance" xsi:noNamespaceSchemaLocation="http://sumo.dlr.de/xsd/duarouterConfiguration.xsd">

    <input>
        <net-file value="basantapur.net.xml"/>
        <route-files value="basantapur_trips.rou.xml"/>
    </input>

    <output>
        <output-file value="routes.rou.xml"/>
        <alternatives-output value="NUL"/>
    </output>

    <time>
        <begin value="0.0"/>
        <end value="3600.0"/>
    </time>

    <report>
        <no-warnings value="true"/>
        <ignore-errors value="true"/>
        <no-step-log value="true"/>
    </report>

</configuration>
-->

<routes xmlns:xsi="http://www.w3.org/2001/XMLSchema-instance" xsi:noNamespaceSchemaLocation="http://sumo.dlr.de/xsd/routes_file.xsd">
    <vType id="passenger" vClass="passenger"/>
    <vType id="truck" vClass="truck"/>
    <vehicle id="0" type="passenger" depart="0.00">
        <route edges="24683728#10 4840392#0 4840392#1 4840392#2 494375479#0 494375479#1 494375479#2 4840408#0 4840408#1 180211673 577458435#3 577458435#4"/>
    </vehicle>
    <vehicle id="1" type="passenger" depart="1.00">
        <route edges="-184133753#8 -184133753#7 -184133753#6 -184133753#5 -184133753#4 -184133753#3 -184133756#2 -184133756#1 -184133756#0 -180216842#5 -180216842#4 -180216842#3 -180216842#2 -180216842#1 -180216842#0 112117476#0 112117476#1"/>
    </vehicle>
    <vehicle id="2" type="passenger" depart="1.00">
        <route edges="-181391491#1 -181391491#0 -351924481#17 -351924481#16 -351924481#15 -351924481#14 -351924481#13 -351924481#12 -351924481#11 -351924481#10 -351924481#9 -212392696#23 -212392696#22 -212392696#21 -212392696#20 -212392696#19 -212392696#18 -212392696#17 -212392696#16 -212392696#15 -212392696#14 -212392696#13 -212392696#12 -212392696#11 -212392696#10 -212392696#9 -212392696#8 -212392696#7 -212392696#6 -212392696#5 -212392696#4 -212392696#3 -212392696#2 -212392696#1 -212392696#0 -171203199#6 -171203199#5 -171203199#4 -171203199#3 -171203199#2 -171203199#1 -171203199#0 -212393878#2 -212393878#1 184131276#0 184131276#1"/>
    </vehicle>
    <vehicle id="3" type="passenger" depart="5.00">
        <route edges="351924481#12 351924481#13 -184133754#1 -184133754#0 -80913265#3 -80913265#2 -80913265#1 -80913265#0 172387581 693606879 693606876 171603746 171203194"/>
    </vehicle>
    <vehicle id="4" type="passenger" depart="5.00">
        <route edges="-112551783#0 112551783#0 112551783#1 112551783#2 112551783#3 184131273 -58752656#0 -169188260 351924485#1 351924485#2 351924485#3 351924485#4 351924485#5 351924485#6 351924481#0 351924481#1 351924481#2 351924481#3 -180216845#9 -180216845#8 -180216845#7 -180216845#6 -180216845#5 -180216845#4 -180216845#3 -180216845#2 -180216845#1 -180216845#0 184133756#0 184133756#1 184133756#2 -184133756#2 -184133756#1"/>
    </vehicle>
    <vehicle id="5" type="passenger" depart="7.00">
        <route edges="-180209202 112551791#3 112551791#4 -58752656#2 -58752656#1 -58752656#0 -169188260 351924485#1 351924485#2 351924485#3 351924485#4 351924485#5 351924485#6 351924481#0 351924481#1 351924481#2 351924481#3 -180216845#9 -180216845#8 -180216845#7 -180216845#6 -180216845#5 -180216845#4 -180216845#3 -180216845#2 -180216845#1 -180216845#0 184133756#0 184133756#1 184133756#2 -184133756#2 -184133756#1"/>
    </vehicle>
    <vehicle id="6" type="passenger" depart="8.00">
        <route edges="180209915 -180209915 184131273 -58752656#0 -169188260 351924485#1 351924485#2 351924485#3 351924485#4 351924485#5 351924485#6 351924481#0 351924481#1 351924481#2 351924481#3 -24683728#10 -24683728#9 -24683728#8 -212392696#18 -212392696#17 -212392696#16 -212392696#15 -212392696#14 -212392696#13 -212392696#12 -212392696#11"/>
    </vehicle>
    <vehicle id="7" type="passenger" depart="9.00">
        <route edges="-212393878#2 -212393878#1 -212393878#0 -171203195 -111984901#0 -112655395 -169116995#2 -169116995#1 -169116995#0 -120353047#3 -120353047#2 27033020#2 27033020#3"/>
    </vehicle>
    <vehicle id="8" type="passenger" depart="10.00">
        <route edges="212393878#0 212393878#1 212393878#2 171203199#0 171203199#1 171203199#2 171203199#3 171203199#4 171203199#5 171203199#6 212392696#0 212392696#1 212392696#2 212392696#3 212392696#4 212392696#5 212392696#6 212392696#7 212392696#8 212392696#9 212392696#10 212392696#11 212392696#12 212392696#13 212392696#14 212392696#15 212392696#16 212392696#17 212392696#18 -24683728#7 -24683728#6 -24683728#5"/>
    </vehicle>
    <vehicle id="9" type="passenger" depart="11.00">
        <route edges="337555873 112551791#1 112551791#2 112551791#3 112551791#4 -58752656#2 -58752656#1 -58752656#0 -169188260 351924485#1 351924485#2 351924485#3 351924485#4 351924485#5 351924485#6 351924481#0 351924481#1 351924481#2 351924481#3 -24683728#10 -24683728#9 -24683728#8 -24683728#7 -24683728#6 -24683728#5 -24683728#4 -24683728#3"/>
    </vehicle>
    <vehicle id="10" type="passenger" depart="11.00">
        <route edges="-58752656#2 -58752656#1 -58752656#0 -169188260 351924485#1 351924485#2 -169188266 -199009940 -24684286 1154453949 494375479#0 133051043#0 133051043#1 80913262#0 -767438606"/>
    </vehicle>
    <vehicle id="11" type="passenger" depart="12.00">
        <route edges="120353047#2 120353047#3 138449070 -184128912#2 -184128912#1 -184128912#0 -81146155#3 -111823096#5 111823096#5"/>
    </vehicle>
    <vehicle id="12" type="passenger" depart="13.00">
        <route edges="212392696#17 212392696#18 24683728#8 24683728#9 24683728#10 -180216845#9 -180216845#8 -180216845#7 -180216845#6 -180216845#5 -180216845#4 -180216845#3 -180216845#2 -180216845#1 -180216845#0 -180216842#5 -180216842#4 -180216842#3 -180216842#2 -180216842#1 -180216842#0 180216842#0"/>
    </vehicle>
    <vehicle id="13" type="passenger" depart="13.00">
        <route edges="-218439407#1 -218439407#0 -218439408 -202983110#1 -202983110#0 112449586#2 112449586#3 199430771#0 199430771#1 199430771#2 -199430771#2"/>
    </vehicle>
    <vehicle id="14" type="passenger" depart="14.00">
        <route edges="171203199#5 171203199#6 212392696#0 212392696#1 212392696#2 212392696#3 212392696#4 212392696#5 212392696#6 212392696#7 212392696#8 212392696#9 212392696#10 212392696#11 212392696#12 212392696#13 212392696#14 212392696#15 212392696#16 212392696#17 212392696#18 -24683728#7 -24683728#6"/>
    </vehicle>
    <vehicle id="15" type="passenger" depart="20.00">
        <route edges="24683736#1 24683736#2 -24683736#2 -24683736#1 -24683736#0 133051049#0 4840388#1 4840388#2 4840388#3 4840388#4 4840388#5 4840388#6 494375479#2 4840408#0 4840408#1 4840408#2 -4840408#2"/>
    </vehicle>
    <vehicle id="17" type="passenger" depart="22.00">
        <route edges="24683728#3 24683728#4 24683728#5 24683728#6 24683728#7 24683728#8 24683728#9 24683728#10 -351924481#3 -351924481#2 -351924481#1 -351924481#0 -351924485#6 -351924485#5 -351924485#4 -351924485#3 -351924485#2"/>
    </vehicle>
    <vehicle id="18" type="passenger" depart="22.00">
        <route edges="4840408#2 -4840408#2 -4840408#1 -4840408#0 494375479#3 1154453949 -4840392#2 -4840392#1 -4840392#0 351924481#4 351924481#5 351924481#6 351924481#7 351924481#8 351924481#9 351924481#10 351924481#11 351924481#12 351924481#13 351924481#14 351924481#15 112654805#0"/>
    </vehicle>
    <vehicle id="19" type="passenger" depart="23.00">
        <route edges="-169188267 169188267 670618779#0 670618779#1 670618779#2 670618779#3 670618779#4 670618779#5 111984901#0 111984901#1 111984901#2 111984901#3 120353053#2 -514853395 -112116416 -514853396#1 -514853396#0 351924485#6 351924481#0 351924481#1"/>
    </vehicle>
    <vehicle id="20" type="passenger" depart="23.00">
        <route edges="-112551791#3 -112551791#2 -112551791#1 -112551791#0 199430771#3 81146155#0 81146155#1 81146155#2 -111823096#5 670618779#0 670618779#1 670618779#2 670618779#3 670618779#4 670618779#5 111984901#0 171203195 212393878#0 212393878#1"/>
    </vehicle>
    <vehicle id="21" type="passenger" depart="24.00">
        <route edges="-351924481#18 -351924481#17 -351924481#16 -351924481#15 -351924481#14 -351924481#13 -351924481#12 -351924481#11 -351924481#10 -351924481#9 -351924481#8 -351924481#7 -351924481#6 -351924481#5 -351924481#4 -351924481#3 -351924481#2 -351924481#1 -351924481#0 -351924485#6 -351924485#5 -351924485#4 -351924485#3 -351924485#2 -351924485#1 169188260 58752656#0 -184131273 -112551783#3 -112551783#2 -112551783#1 -112551783#0"/>
    </vehicle>
    <vehicle id="22" type="passenger" depart="24.00">
        <route edges="-184133753#6 -184133753#5 -184133753#4 -184133753#3 -184133756#2 -184133756#1 -184133756#0 180216845#0 180216845#1 180216845#2 180216845#3 180216845#4 180216845#5 180216845#6 180216845#7 180216845#8 180216845#9 -351924481#3 -351924481#2 -351924481#1 -351924481#0 -351924485#6 514853396#0 514853396#1 112116416 514853395 -120353053#2 -111984901#3 -111984901#2 -111984901#1 -111984901#0 -112655395 -169116995#2 -169116995#1 169188269#0 909498917"/>
    </vehicle>
    <vehicle id="23" type="passenger" depart="24.00">
        <route edges="-112551791#1 112551791#1 112551791#2 112551791#3 112551791#4 -58752656#2 -58752656#1 -58752656#0 -169188260 351924485#1 351924485#2 -169188266 -199009940 -24684286 1154453949 494375479#0 133051043#0 133051043#1 133051043#2 133051043#3 133051049#0 -133051049#0 24683736#0 24683736#1 24683736#2"/>
    </vehicle>
    <vehicle id="24" type="passenger" depart="25.00">
        <route edges="-337154627 -120278036#1 -120278040 120353047#3 138449070 -184128912#2 -184128912#1 -184128912#0 -81146155#3 -81146155#2 -81146155#1 -81146155#0 -199430771#3 -199430771#2 -199430771#1 -547414446 -184131279#2 -184131279#1"/>
    </vehicle>
    <vehicle id="25" type="passenger" depart="25.00">
        <route edges="112551783#3 184131273 -58752656#0 -169188260 351924485#1 351924485#2 -169188266 -199009940 -24684286 1154453949 494375479#0 133051043#0 133051043#1 133051043#2 133051043#3 133051043#4 172387593#1 172387593#2 172387597#0 172387597#1 172387590#0 172387590#1 172387581 693606879 693606876"/>
    </vehicle>
    <vehicle id="26" type="passenger" depart="25.00">
        <route edges="-351924485#3 351924485#3 351924485#4 351924485#5 351924485#6 351924481#0 351924481#1 351924481#2 351924481#3 351924481#4 351924481#5 351924481#6 351924481#7 351924481#8 351924481#9 351924481#10 351924481#11 351924481#12 351924481#13 4840409#0 220294114#0 220294114#1 220294114#2 220294114#3 220294114#4 220294114#5"/>
    </vehicle>
    <vehicle id="27" type="passenger" depart="26.00">
        <route edges="-80913265#3 -80913265#2 80913265#2 80913265#3 -184133753#8 -184133753#7 -184133753#6 -184133753#5 -184133753#4 -184133753#3 -184133756#2 -184133756#1 -184133756#0 180216845#0 180216845#1 180216845#2 180216845#3 180216845#4 180216845#5 180216845#6 180216845#7 180216845#8 180216845#9 -351924481#3 -351924481#2 -351924481#1 -351924481#0 -351924485#6 -351924485#5 -351924485#4 -351924485#3 -351924485#2 -351924485#1 169188260 58752656#0 58752656#1 58752656#2 184131279#0 -180208508#3 -180208508#2 -136452127"/>
    </vehicle>
    <vehicle id="28" type="passenger" depart="28.00">
        <route edges="-184133749#1 -184133749#0 184133749#0 184133749#1 -24683736#2 -24683736#1 -24683736#0 133051049#0 4840388#1 4840388#2 4840388#3 -24683733#0"/>
    </vehicle>
    <vehicle id="29" type="passenger" depart="29.00">
        <route edges="218439407#6 351924485#0 351924485#1 351924485#2 351924485#3 351924485#4 351924485#5 351924485#6 351924481#0 351924481#1 351924481#2 351924481#3 351924481#4 351924481#5 351924481#6 351924481#7 351924481#8 351924481#9 351924481#10 351924481#11 351924481#12 351924481#13 4840409#0 220294114#0 -24683729#4 -24683729#3 -24683729#2 -24683729#1 -24683729#0 24683729#0 24683729#1 24683729#2 24683729#3"/>
    </vehicle>
    <vehicle id="30" type="passenger" depart="30.00">
        <route edges="-81465111#3 81465111#3 81465111#4 169116995#0 169116995#1 169116995#2 112655395 -670618779#5 -670618779#4 -670618779#3 -670618779#2 -670618779#1"/>
    </vehicle>
    <vehicle id="31" type="passenger" depart="30.00">
        <route edges="-111823085#1 -111823085#0 -111823096#3 -111823096#2 -180209915 184131273 -58752656#0 -169188260 351924485#1 351924485#2 351924485#3 351924485#4 351924485#5 351924485#6 351924481#0 351924481#1 351924481#2 351924481#3 351924481#4 351924481#5 351924481#6 351924481#7 351924481#8 351924481#9 351924481#10 351924481#11 351924481#12 351924481#13 4840409#0 220294114#0 -220294114#0"/>
    </vehicle>
    <trip color="red" id="firetruck" type="truck" depart="30.00" from="4840408#0" to="120353057"/>  
    
    <vehicle id="32" type="passenger" depart="31.00">
        <route edges="-24683736#2 -24683736#1 -112117476#3 -112117476#2 -112117476#1 -112117476#0 180216842#0 180216842#1 180216842#2 180216842#3 180216842#4 180216842#5 180216845#0 180216845#1 180216845#2 180216845#3 180216845#4 180216845#5 180216845#6 180216845#7 180216845#8 180216845#9 -351924481#3 -351924481#2 -351924481#1 -351924481#0 -351924485#6 514853396#0 514853396#1 112116416 514853395 -514853395 -112116416 -514853396#1 -514853396#0"/>
    </vehicle>
    <vehicle id="33" type="passenger" depart="31.00">
        <route edges="-254097239 -180214606 -4840408#3 -4840408#2 -4840408#1 -4840408#0 494375479#3 1154453949 -4840392#2 -4840392#1 -4840392#0 -180216845#9"/>
    </vehicle>
    <vehicle id="34" type="passenger" depart="32.00">
        <route edges="351924485#4 351924485#5 351924485#6 351924481#0 351924481#1 351924481#2 351924481#3 -24683728#10 -24683728#9 -24683728#8 -212392696#18 -212392696#17 -212392696#16 -212392696#15 -212392696#14 -212392696#13 -212392696#12 -212392696#11 -212392696#10 -212392696#9 -212392696#8 -212392696#7 -212392696#6 -212392696#5 -212392696#4 -212392696#3"/>
    </vehicle>
    <vehicle id="35" type="passenger" depart="34.00">
        <route edges="-351924481#7 -351924481#6 -351924481#5 -351924481#4 -351924481#3 -351924481#2 -351924481#1 -351924481#0 -351924485#6 -351924485#5 -351924485#4 -351924485#3 -169188266 -199009940 -577458435#4 -577458435#3"/>
    </vehicle>
    <vehicle id="36" type="passenger" depart="40.00">
        <route edges="-133051049#2 -133051049#1 -133051049#0 133051043#4 172387593#1 172387593#2 172387597#0 172387597#1 172387590#0 172387590#1 172387581 693606874 4825630#0 4825630#1"/>
    </vehicle>
    <vehicle id="37" type="passenger" depart="42.00">
        <route edges="111823096#2 111823096#3 -111823096#3 -111823096#2 -180209915 184131273 -58752656#0 -169188260 351924485#1 351924485#2 351924485#3 169188258 120353053#0 120353053#1 120353053#2 171203198 171203199#0 171203199#1 171203199#2 171203199#3 171203199#4 171203199#5 171203199#6 212392696#0 212392696#1 212392696#2 212392696#3 212392696#4 212392696#5"/>
    </vehicle>
    <vehicle id="39" type="passenger" depart="44.00">
        <route edges="-120353047#1 -120353047#0 -4840409#14 -4840409#13 -4840409#12 -4840409#11 -4840409#10 -4840409#9 24683728#2 24683728#3 24683728#4 24683728#5 24683728#6 24683728#7 24683728#8 24683728#9 24683728#10 -180216845#9 -180216845#8 -180216845#7 -180216845#6 -180216845#5 -180216845#4 -180216845#3 -180216845#2 -180216845#1 -180216845#0 184133756#0 184133756#1 184133756#2 184133753#3 184133753#4 184133753#5 184133753#6 184133753#7 184133753#8"/>
    </vehicle>
    <vehicle id="40" type="passenger" depart="45.00">
        <route edges="212393878#0 -212393878#0 -171203195 -111984901#0 -112655395 -169116995#2 -169116995#1 -169116995#0 -120353047#3 -120353047#2 -27033020#1 -27033020#0"/>
    </vehicle>
    <vehicle id="41" type="passenger" depart="46.00">
        <route edges="4840409#7 4840409#8 4840409#9 4840409#10 4840409#11 4840409#12 4840409#13 4840409#14 -171203199#8 -171203199#7 81465111#0 81465111#1 81465111#2 81465111#3 169188264#0 -169344975"/>
    </vehicle>
    <vehicle id="42" type="passenger" depart="51.00">
        <route edges="351924481#11 351924481#12 351924481#13 -184133754#1 -184133754#0 -184133753#8 -184133753#7 -184133753#6 -184133753#5 -184133753#4 -184133753#3 -184133753#2 -184133753#1 -184133753#0 -24683736#2 -24683736#1 -24683736#0 133051049#0 4840388#1 4840388#2 4840388#3 -24683733#0"/>
    </vehicle>
    <vehicle id="43" type="passenger" depart="52.00">
        <route edges="4840408#3 58472957 -577458435#0 254097239 120353057 -218439407#0"/>
    </vehicle>
    <vehicle id="44" type="passenger" depart="54.00">
        <route edges="-81146155#3 81146155#3 184128912#0 184128912#1 184128912#2 -138449070 -120353047#3 -120353047#2 -120353047#1 -120353047#0 -4840409#14 -4840409#13 -4840409#12 -4840409#11 -4840409#10 -4840409#9 -24683728#1 -24683728#0 -1119868288 -112551797#0 -220294114#6 -220294114#5"/>
    </vehicle>
    <vehicle id="45" type="passenger" depart="54.00">
        <route edges="169188253 -169188253 -171203199#2 -171203199#1 -171203199#0 -171203198 -120353053#2 -120353053#1 -120353053#0 -169188258 -351924485#3 -169188266 -199009940 -577458435#4 -577458435#3 -577458435#2 -577458435#1 -577458435#0 -136452123#5 -136452123#4 -136452123#3 -136452123#2 -136452123#1"/>
    </vehicle>
    <vehicle id="46" type="passenger" depart="55.00">
        <route edges="494375479#2 4840408#0 4840408#1 180211673 577458435#3 577458435#4 199009940 169188266 -351924485#2 -351924485#1 -351924485#0 -218439407#6"/>
    </vehicle>
    <vehicle id="47" type="passenger" depart="57.00">
        <route edges="577458435#3 577458435#4 199009940 169188266 351924485#3 169188258 120353053#0 120353053#1 -111984901#3 -111984901#2 -111984901#1 -111984901#0 -112655395 -169116995#2 -169116995#1 -169116995#0 -120353047#3"/>
    </vehicle>
    <vehicle id="48" type="passenger" depart="58.00">
        <route edges="184133753#8 184133754#0 184133754#1 4840409#0 4840409#1 4840409#2 4840409#3 4840409#4 4840409#5 4840409#6 4840409#7 4840409#8 4840409#9 4840409#10 4840409#11 4840409#12 4840409#13 4840409#14 120353047#0 120353047#1 120353047#2 -169188264#1"/>
    </vehicle>
    <vehicle id="49" type="passenger" depart="58.00">
        <route edges="-184131280 184131280 -171203195 -111984901#0 -670618779#5 -670618779#4 -670618779#3 -670618779#2 -670618779#1 -670618779#0 111823096#5 -81146155#2 -81146155#1 142107922#0 142107922#1"/>
    </vehicle>
    <vehicle id="50" type="passenger" depart="59.00">
        <route edges="-24684286 24684286 199009940 169188266 351924485#3 169188258 120353053#0 120353053#1 -111984901#3 -111984901#2 -111984901#1 111984901#1"/>
    </vehicle>
    <vehicle id="51" type="passenger" depart="59.00">
        <route edges="58752656#0 -58752656#0 -169188260 351924485#1 351924485#2 351924485#3 169188258 120353053#0 120353053#1 120353053#2 171203198 171203199#0 171203199#1 171203199#2 171203199#3 171203199#4 171203199#5 171203199#6 171203199#7 171203199#8 120353047#0 120353047#1 -27033020#1 27033020#1"/>
    </vehicle>
    <vehicle id="52" type="passenger" depart="62.00">
        <route edges="232351908 172387590#0 184133749#0 184133749#1 -24683736#2 -24683736#1 -24683736#0 133051049#0 4840388#1 4840388#2 4840388#3 4840388#4 4840388#5 4840388#6 494375479#2 4840408#0 4840408#1 4840408#2 4840408#3 58472957 -577458435#0 254097239"/>
    </vehicle>
    <vehicle id="53" type="passenger" depart="62.00">
        <route edges="-4840408#2 -4840408#1 -4840408#0 494375479#3 1154453949 -4840392#2 -4840392#1 -4840392#0 -180216845#9 -180216845#8 -180216845#7 -180216845#6 -180216845#5 -180216845#4 -180216845#3 -180216845#2 -180216845#1 -180216845#0 184133756#0 184133756#1 184133756#2 184133753#3 184133753#4 184133753#5 184133753#6 184133753#7 184133753#8 -80913265#3 -80913265#2 -80913265#1 -80913265#0"/>
    </vehicle>
    <vehicle id="54" type="passenger" depart="64.00">
        <route edges="180208508#2 180208508#3 -184131279#0 -58752656#2 -58752656#1 -58752656#0 -169188260 351924485#1 351924485#2 -169188266 -199009940 199009940 169188266"/>
    </vehicle>
    <vehicle id="55" type="passenger" depart="64.00">
        <route edges="-670618779#4 -670618779#3 -670618779#2 -670618779#1 -670618779#0 670618779#0 670618779#1 670618779#2 670618779#3 670618779#4 670618779#5 111984901#0 111984901#1 111984901#2 111984901#3 -120353053#1 -120353053#0 -169188258 -351924485#3 -169188266 -199009940 -24684286 1154453949 494375479#0 133051043#0 133051053#0 4840388#5 4840388#6"/>
    </vehicle>
    <vehicle id="56" type="passenger" depart="64.00">
        <route edges="-111823096#1 -111823096#0 111823096#0 111823096#1 111823096#2 111823096#3 111823096#4 670618779#0 670618779#1 670618779#2 670618779#3 670618779#4 670618779#5 111984901#0 171203195 212393878#0 184131276#0 184131276#1 184131276#2 -184131276#2"/>
    </vehicle>
    <vehicle id="57" type="passenger" depart="65.00">
        <route edges="-218439407#1 218439407#1 218439407#2 218439407#3 218439407#4 218439407#5 218439407#6 351924485#0 351924485#1 351924485#2 351924485#3 351924485#4 351924485#5 -351924485#5"/>
    </vehicle>
    <vehicle id="58" type="passenger" depart="65.00">
        <route edges="-220294114#2 -220294114#1 -220294114#0 -4840409#0 351924481#14 351924481#15 351924481#16 351924481#17 -351924481#17"/>
    </vehicle>
    <vehicle id="59" type="passenger" depart="66.00">
        <route edges="217543158 -217543158 112551784 81465111#1 81465111#2 81465111#3 169188264#0 169188264#1 120278040 120278036#1 120278036#2 -120278036#2"/>
    </vehicle>
    <vehicle id="60" type="passenger" depart="66.00">
        <route edges="4840388#5 4840388#6 494375479#2 494375479#3 1154453949 -4840392#2"/>
    </vehicle>
    <vehicle id="61" type="passenger" depart="66.00">
        <route edges="180214981#1 -180214981#1 -180214981#0 -58472955 58472957 -577458435#0 254097239 120353057 -218439407#0 -218439408 180208508#0"/>
    </vehicle>
    <vehicle id="62" type="passenger" depart="67.00">
        <route edges="351924481#5 351924481#6 351924481#7 351924481#8 351924481#9 351924481#10 351924481#11 351924481#12 351924481#13 -218316959#3 -218316959#2 -218316959#1 -218316959#0 4825630#0"/>
    </vehicle>
    <vehicle id="63" type="passenger" depart="67.00">
        <route edges="180216845#5 180216845#6 180216845#7 180216845#8 180216845#9 351924481#4 351924481#5 351924481#6 351924481#7 351924481#8 351924481#9 351924481#10 351924481#11 351924481#12 351924481#13 351924481#14"/>
    </vehicle>
    <vehicle id="64" type="passenger" depart="67.00">
        <route edges="-181391491#0 -351924481#17 -351924481#16 -351924481#15 -351924481#14 -351924481#13 -351924481#12 -351924481#11 -351924481#10 -351924481#9 -351924481#8 -351924481#7 -351924481#6 -351924481#5 -351924481#4 4840392#0 4840392#1 4840392#2 494375479#0 494375479#1 494375479#2 4840408#0 4840408#1 4840408#2 4840408#3 -4840408#3"/>
    </vehicle>
    <vehicle id="65" type="passenger" depart="68.00">
        <route edges="-171603746 -693606876 4840104 4825630#0 -351924481#19 -351924481#18 -351924481#17 -351924481#16 -351924481#15 -351924481#14 -351924481#13 -351924481#12 -351924481#11 -351924481#10 -351924481#9 -351924481#8 -351924481#7 -351924481#6 -351924481#5 -351924481#4 -351924481#3 -351924481#2 -351924481#1 -351924481#0 -351924485#6 514853396#0 514853396#1 112116416 514853395 -514853395 -112116416"/>
    </vehicle>
    <vehicle id="66" type="passenger" depart="68.00">
        <route edges="180216845#0 180216845#1 180216845#2 180216845#3 180216845#4 180216845#5 180216845#6 180216845#7 180216845#8 180216845#9 -24683728#10 58425711#0 58425711#1 58425711#2 58425711#3 253307745#0 253307745#1 253307745#2 -171203199#1 -171203199#0 -212393878#2 -212393878#1 184131276#0 184131276#1 184131276#2 -184131277 -142108309 979666722#0"/>
    </vehicle>
    <vehicle id="67" type="passenger" depart="70.00">
        <route edges="-180216845#2 -180216845#1 -180216845#0 180216845#0 180216845#1 180216845#2 180216845#3 180216845#4 180216845#5 180216845#6 180216845#7 180216845#8 180216845#9 -351924481#3 -351924481#2 -351924481#1 -351924481#0 -351924485#6 514853396#0 514853396#1 112116416 514853395 -120353053#2 -111984901#3 -111984901#2 -111984901#1 111984901#1 111984901#2 111984901#3"/>
    </vehicle>
    <vehicle id="68" type="passenger" depart="71.00">
        <route edges="-212392696#16 -212392696#15 -212392696#14 -212392696#13 -212392696#12 -212392696#11 -212392696#10 -212392696#9 -212392696#8 -212392696#7 -212392696#6 -212392696#5 -212392696#4 -212392696#3 -212392696#2 -212392696#1 -212392696#0 171203199#7 171203199#8 -4840409#14 -4840409#13 -4840409#12 -4840409#11 -4840409#10 -4840409#9 -4840409#8 -4840409#7 -4840409#6 -4840409#5 -4840409#4 -4840409#3 -4840409#2 -4840409#1 -4840409#0"/>
    </vehicle>
    <vehicle id="69" type="passenger" depart="72.00">
        <route edges="220294114#3 220294114#4 220294114#5 220294114#6 112551797#0 1119868288 24683728#0 24683728#1 4840409#9 4840409#10 4840409#11 4840409#12 4840409#13 4840409#14 120353047#0 120353047#1 120353047#2 120353047#3 138449070 -184128912#2 -184128912#1 -184128912#0"/>
    </vehicle>
    <vehicle id="70" type="passenger" depart="72.00">
        <route edges="-120353047#1 -120353047#0 -171203199#8 -171203199#7 -171203199#6 -171203199#5 -171203199#4 -171203199#3 -171203199#2 -171203199#1 -171203199#0 -171203198 -120353053#2 -111984901#3 -111984901#2 -111984901#1 -111984901#0 -112655395"/>
    </vehicle>
    <vehicle id="71" type="passenger" depart="77.00">
        <route edges="-351924481#16 -351924481#15 -351924481#14 -351924481#13 -351924481#12 -351924481#11 -351924481#10 -351924481#9 -351924481#8 -351924481#7 -351924481#6 -351924481#5 -351924481#4 -351924481#3 -351924481#2 -351924481#1 -351924481#0 -351924485#6 -351924485#5 -351924485#4 -351924485#3 -351924485#2 -351924485#1 169188260 58752656#0 -184131273 180209915 111823096#2 111823096#3 -111823096#3 -111823096#2"/>
    </vehicle>
    <vehicle id="72" type="passenger" depart="79.00">
        <route edges="-184128912#0 -81146155#3 -81146155#2 -81146155#1 -81146155#0 -199430771#3 -199430771#2 -199430771#1 -547414446 -184131279#2 -184131279#1 -184131279#0 136452126#0 136452126#1 136452123#0 136452123#1 136452123#2 136452123#3 136452123#4 136452123#5 -180214606 58472955 180214981#0 180214981#1 180214981#2 24683733#5 24683733#6 24683733#7 -921792726"/>
    </vehicle>
    <vehicle id="73" type="passenger" depart="82.00">
        <route edges="218439407#6 351924485#0 351924485#1 351924485#2 -169188266 -199009940 -24684286 1154453949 494375479#0 133051043#0 133051043#1 24683733#0 24683733#1 24683733#2 24683733#3 -24683733#3 -24683733#2 -24683733#1"/>
    </vehicle>
    <vehicle id="74" type="passenger" depart="84.00">
        <route edges="-184133754#1 -184133754#0 -184133753#8 -184133753#7 -184133753#6 -184133753#5 -184133753#4 -184133753#3 -184133756#2 -184133756#1 -184133756#0 180216845#0 180216845#1 180216845#2 180216845#3 180216845#4 180216845#5 180216845#6 180216845#7 180216845#8 180216845#9 -24683728#10 -24683728#9 -24683728#8 -212392696#18 -212392696#17 -212392696#16 -212392696#15 -212392696#14 -212392696#13 -212392696#12 -212392696#11 -212392696#10 -212392696#9 -212392696#8 -212392696#7 -212392696#6 -212392696#5 -212392696#4 -212392696#3 -212392696#2 -212392696#1 -212392696#0 212392696#0 212392696#1"/>
    </vehicle>
    <vehicle id="75" type="passenger" depart="85.00">
        <route edges="184131279#2 547414446 -547414446 -184131279#2 -184131279#1 -184131279#0 136452126#0 136452126#1 136452123#0 136452123#1 136452123#2 136452123#3 136452123#4 136452123#5 -180214606 58472955"/>
    </vehicle>
    <vehicle id="76" type="passenger" depart="85.00">
        <route edges="4840388#0 4840388#1 4840388#2 4840388#3 4840388#4 4840388#5 4840388#6 494375479#2 4840408#0 4840408#1 180211673 577458435#3 577458435#4 199009940 169188266 -351924485#2 -351924485#1 169188260 58752656#0 -184131273 180209915 111823096#2 111823096#3 -142107922#2 -142107922#1"/>
    </vehicle>
    <vehicle id="77" type="passenger" depart="85.00">
        <route edges="-351924481#6 -351924481#5 -351924481#4 -180216845#9 -180216845#8 -180216845#7 -180216845#6 -180216845#5"/>
    </vehicle>
    <vehicle id="78" type="passenger" depart="86.00">
        <route edges="172129845 231194709 4840388#0 4840388#1 4840388#2 4840388#3 -24683733#0 80913262#0 80913262#1 -112117476#0 180216842#0 180216842#1 180216842#2 180216842#3 180216842#4 180216842#5 -180216842#5"/>
    </vehicle>
    <vehicle id="79" type="passenger" depart="87.00">
        <route edges="80913265#0 80913265#1 80913265#2 80913265#3 -184133753#8 -184133753#7 -184133753#6 -184133753#5 -184133753#4 -184133753#3 -184133756#2 -184133756#1 -184133756#0 -180216842#5 -180216842#4 -180216842#3 -180216842#2 -180216842#1 -180216842#0 112117476#0 -80913262#1 -80913262#0 24683733#0 24683733#1 24683733#2 24683733#3 -186151585"/>
    </vehicle>
    <vehicle id="80" type="passenger" depart="88.00">
        <route edges="-4840392#2 -4840392#1 -4840392#0 -24683728#10 -24683728#9 -24683728#8 -212392696#18 -212392696#17 -212392696#16 -212392696#15 -212392696#14 -212392696#13 -212392696#12 -212392696#11 -212392696#10 -212392696#9 -212392696#8 -212392696#7 -212392696#6 -212392696#5 -212392696#4 -212392696#3 -212392696#2 -212392696#1 -212392696#0 81465111#0 81465111#1 81465111#2 81465111#3 81465111#4 138449070"/>
    </vehicle>
    <vehicle id="81" type="passenger" depart="88.00">